
Spectre (R) Circuit Simulator
Version 21.1.0.058 64bit -- 18 Aug 2021
Copyright (C) 1989-2021 Cadence Design Systems, Inc. All rights reserved worldwide. Cadence and Spectre are registered trademarks of Cadence Design Systems, Inc. All others are the property of their respective holders.

Includes RSA BSAFE(R) Cryptographic or Security Protocol Software from RSA Security, Inc.

User: tianles3   Host: fastx3-23.ews.illinois.edu   HostID: 16AC14E6   PID: 527405
Memory  available: 16.5658 GB  physical: 24.9488 GB
Linux   : Red Hat Enterprise Linux release 8.10 (Ootpa)
CPU Type: Intel(R) Xeon(R) Silver 4216 CPU @ 2.10GHz
All processors running at 2095.1 MHz
        Socket: Processors
        0:       0
        2:       1
        4:       2
        6:       3
        8:       4
        10:      5
        12:      6
        14:      7
        16:      8
        18:      9
        
System load averages (1min, 5min, 15min) : 68.7 %, 61.5 %, 53.9 %
HPC is enabled
This is a virtual machine


Simulating `input.scs' on fastx3-23.ews.illinois.edu at 11:55:14 AM, Sun Apr 27, 2025 (process id: 527405).
Current working directory: /home/tianles3/cadence/simulation/ece483_sp25_AG/tb_mp3/maestro/results/maestro/ExplorerRun.0/1/ece483_sp25_AG_tb_mp3_1/netlist_tianles3
Command line:
    /software/cadence-2021-09/SPECTRE211/tools.lnx86/bin/spectre -64  \
        input.scs +escchars +log ../../../../../../../psf/spectre.out  \
        +inter=mpsc +mpssession=spectre0_523783_1 -format psfxl -raw  \
        ../../../../../../../psf +aps +lqtimeout 900 -maxw 5 -maxn 5  \
        -env ade
spectre pid = 527405

Licensing Information:
[11:55:15.355729] Configured Lic search path (20.02-p002): 5280@cadence.webstore.illinois.edu

Licensing Information:
[11:55:15.427537] Periodic Lic check successful

Loading /software/cadence-2021-09/SPECTRE211/tools.lnx86/cmi/lib/64bit/5.0/libinfineon_sh.so ...
Loading /software/cadence-2021-09/SPECTRE211/tools.lnx86/cmi/lib/64bit/5.0/libphilips_o_sh.so ...
Loading /software/cadence-2021-09/SPECTRE211/tools.lnx86/cmi/lib/64bit/5.0/libphilips_sh.so ...
Loading /software/cadence-2021-09/SPECTRE211/tools.lnx86/cmi/lib/64bit/5.0/libsparam_sh.so ...
Loading /software/cadence-2021-09/SPECTRE211/tools.lnx86/cmi/lib/64bit/5.0/libstmodels_sh.so ...
Reading file:  /home/tianles3/cadence/simulation/ece483_sp25_AG/tb_mp3/maestro/results/maestro/ExplorerRun.0/1/ece483_sp25_AG_tb_mp3_1/netlist_tianles3/input.scs
Reading file:  /software/cadence-2021-09/SPECTRE211/tools.lnx86/spectre/etc/configs/spectre.cfg
Reading file:  /class/ece483/models/models_ece483
Time for NDB Parsing: CPU = 76.157 ms, elapsed = 794.207 ms.
Time accumulated: CPU = 180.751 ms, elapsed = 794.214 ms.
Peak resident memory used = 110 Mbytes.

Time for Elaboration: CPU = 23.132 ms, elapsed = 25.363 ms.
Time accumulated: CPU = 204.063 ms, elapsed = 819.755 ms.
Peak resident memory used = 120 Mbytes.


Warning from spectre during hierarchy flattening.
    WARNING (SPECTRE-17101): The value 'psf' specified for the 'checklimitdest' option will no longer be supported in future releases. Use 'spectre -h' to see other recommended values for the 'checklimitdest' option.


Time for EDB Visiting: CPU = 867 us, elapsed = 873.804 us.
Time accumulated: CPU = 205.124 ms, elapsed = 820.821 ms.
Peak resident memory used = 120 Mbytes.


Notice from spectre during topology check.
    Only one connection to node `0'.
Notice from spectre during initial setup.
    Multithreading is disabled due to the size of the design being too small.


Global user options:
         psfversion = 1.4.0
            vabstol = 1e-06
            iabstol = 1e-12
               temp = 27
               gmin = 1e-12
             rforce = 1
           maxnotes = 5
           maxwarns = 5
             digits = 5
               cols = 80
             pivrel = 0.001
           sensfile = ../../../../../../../psf/sens.output
     checklimitdest = psf
               save = allpub
             reltol = 0.001
               tnom = 27
             scalem = 1
              scale = 1

Scoped user options:

Circuit inventory:
              nodes 14
            bsim3v3 12    
          capacitor 2     
            isource 2     
            vsource 6     

Analysis and control statement inventory:
                 ac 1     
               info 6     

Output statements:
             .probe 0     
           .measure 0     
               save 0     


Notice from spectre during initial setup.
    1 vsources are shorted because their absolute value is less than or equal to 'vabsshort'.
    APS enabled.

Time for parsing: CPU = 2.568 ms, elapsed = 6.12998 ms.
Time accumulated: CPU = 207.831 ms, elapsed = 827.1 ms.
Peak resident memory used = 123 Mbytes.

~~~~~~~~~~~~~~~~~~~~~~
Pre-Simulation Summary
~~~~~~~~~~~~~~~~~~~~~~
~~~~~~~~~~~~~~~~~~~~~~
Entering remote command mode using MPSC service (spectre, ipi, v0.0, spectre0_523783_1, ).

****************************************
AC Analysis `ac': freq = (1 Hz -> 1 GHz)
****************************************
DC simulation time: CPU = 376 us, elapsed = 376.94 us.

Opening the PSF file ../../../../../../../psf/ac.ac ...
    ac: freq = 1.856 Hz    (2.99 %), step = 181.9 mHz    (498 m%)
    ac: freq = 2.058 Hz    (3.48 %), step = 201.6 mHz    (498 m%)
    ac: freq = 2.281 Hz    (3.98 %), step = 223.5 mHz    (498 m%)
    ac: freq = 2.529 Hz    (4.48 %), step = 247.8 mHz    (498 m%)
    ac: freq = 2.804 Hz    (4.98 %), step = 274.7 mHz    (498 m%)
    ac: freq = 3.108 Hz    (5.47 %), step = 304.5 mHz    (498 m%)
    ac: freq = 3.446 Hz    (5.97 %), step = 337.6 mHz    (498 m%)
    ac: freq = 3.82 Hz     (6.47 %), step = 374.2 mHz    (498 m%)
    ac: freq = 4.235 Hz    (6.97 %), step = 414.9 mHz    (498 m%)
    ac: freq = 4.695 Hz    (7.46 %), step = 459.9 mHz    (498 m%)
    ac: freq = 5.205 Hz    (7.96 %), step = 509.9 mHz    (498 m%)
    ac: freq = 5.77 Hz     (8.46 %), step = 565.3 mHz    (498 m%)
    ac: freq = 6.397 Hz    (8.96 %), step = 626.7 mHz    (498 m%)
    ac: freq = 7.092 Hz    (9.45 %), step = 694.7 mHz    (498 m%)
    ac: freq = 7.862 Hz    (9.95 %), step = 770.2 mHz    (498 m%)
    ac: freq = 8.716 Hz    (10.4 %), step = 853.8 mHz    (498 m%)
    ac: freq = 9.662 Hz    (10.9 %), step = 946.5 mHz    (498 m%)
    ac: freq = 10.71 Hz    (11.4 %), step = 1.049 Hz     (498 m%)
    ac: freq = 11.87 Hz    (11.9 %), step = 1.163 Hz     (498 m%)
    ac: freq = 13.16 Hz    (12.4 %), step = 1.29 Hz      (498 m%)
    ac: freq = 14.59 Hz    (12.9 %), step = 1.43 Hz      (498 m%)
    ac: freq = 16.18 Hz    (13.4 %), step = 1.585 Hz     (498 m%)
    ac: freq = 17.94 Hz    (13.9 %), step = 1.757 Hz     (498 m%)
    ac: freq = 19.88 Hz    (14.4 %), step = 1.948 Hz     (498 m%)
    ac: freq = 22.04 Hz    (14.9 %), step = 2.159 Hz     (498 m%)
    ac: freq = 24.44 Hz    (15.4 %), step = 2.394 Hz     (498 m%)
    ac: freq = 27.09 Hz    (15.9 %), step = 2.654 Hz     (498 m%)
    ac: freq = 30.03 Hz    (16.4 %), step = 2.942 Hz     (498 m%)
    ac: freq = 33.3 Hz     (16.9 %), step = 3.262 Hz     (498 m%)
    ac: freq = 36.91 Hz    (17.4 %), step = 3.616 Hz     (498 m%)
    ac: freq = 40.92 Hz    (17.9 %), step = 4.009 Hz     (498 m%)
    ac: freq = 45.36 Hz    (18.4 %), step = 4.444 Hz     (498 m%)
    ac: freq = 50.29 Hz    (18.9 %), step = 4.927 Hz     (498 m%)
    ac: freq = 55.75 Hz    (19.4 %), step = 5.462 Hz     (498 m%)
    ac: freq = 61.81 Hz    (19.9 %), step = 6.055 Hz     (498 m%)
    ac: freq = 68.52 Hz    (20.4 %), step = 6.713 Hz     (498 m%)
    ac: freq = 75.96 Hz    (20.9 %), step = 7.442 Hz     (498 m%)
    ac: freq = 84.21 Hz    (21.4 %), step = 8.25 Hz      (498 m%)
    ac: freq = 93.36 Hz    (21.9 %), step = 9.146 Hz     (498 m%)
    ac: freq = 103.5 Hz    (22.4 %), step = 10.14 Hz     (498 m%)
    ac: freq = 114.7 Hz    (22.9 %), step = 11.24 Hz     (498 m%)
    ac: freq = 127.2 Hz    (23.4 %), step = 12.46 Hz     (498 m%)
    ac: freq = 141 Hz      (23.9 %), step = 13.81 Hz     (498 m%)
    ac: freq = 156.3 Hz    (24.4 %), step = 15.31 Hz     (498 m%)
    ac: freq = 173.3 Hz    (24.9 %), step = 16.98 Hz     (498 m%)
    ac: freq = 192.1 Hz    (25.4 %), step = 18.82 Hz     (498 m%)
    ac: freq = 213 Hz      (25.9 %), step = 20.87 Hz     (498 m%)
    ac: freq = 236.1 Hz    (26.4 %), step = 23.13 Hz     (498 m%)
    ac: freq = 261.8 Hz    (26.9 %), step = 25.64 Hz     (498 m%)
    ac: freq = 290.2 Hz    (27.4 %), step = 28.43 Hz     (498 m%)
    ac: freq = 321.7 Hz    (27.9 %), step = 31.52 Hz     (498 m%)
    ac: freq = 356.6 Hz    (28.4 %), step = 34.94 Hz     (498 m%)
    ac: freq = 395.4 Hz    (28.9 %), step = 38.73 Hz     (498 m%)
    ac: freq = 438.3 Hz    (29.4 %), step = 42.94 Hz     (498 m%)
    ac: freq = 485.9 Hz    (29.9 %), step = 47.6 Hz      (498 m%)
    ac: freq = 538.7 Hz    (30.3 %), step = 52.77 Hz     (498 m%)
    ac: freq = 597.2 Hz    (30.8 %), step = 58.5 Hz      (498 m%)
    ac: freq = 662.1 Hz    (31.3 %), step = 64.86 Hz     (498 m%)
    ac: freq = 734 Hz      (31.8 %), step = 71.9 Hz      (498 m%)
    ac: freq = 813.7 Hz    (32.3 %), step = 79.71 Hz     (498 m%)
    ac: freq = 902 Hz      (32.8 %), step = 88.37 Hz     (498 m%)
    ac: freq = 1 kHz       (33.3 %), step = 97.96 Hz     (498 m%)
    ac: freq = 1.109 kHz   (33.8 %), step = 108.6 Hz     (498 m%)
    ac: freq = 1.229 kHz   (34.3 %), step = 120.4 Hz     (498 m%)
    ac: freq = 1.362 kHz   (34.8 %), step = 133.5 Hz     (498 m%)
    ac: freq = 1.51 kHz    (35.3 %), step = 148 Hz       (498 m%)
    ac: freq = 1.674 kHz   (35.8 %), step = 164 Hz       (498 m%)
    ac: freq = 1.856 kHz   (36.3 %), step = 181.9 Hz     (498 m%)
    ac: freq = 2.058 kHz   (36.8 %), step = 201.6 Hz     (498 m%)
    ac: freq = 2.281 kHz   (37.3 %), step = 223.5 Hz     (498 m%)
    ac: freq = 2.529 kHz   (37.8 %), step = 247.8 Hz     (498 m%)
    ac: freq = 2.804 kHz   (38.3 %), step = 274.7 Hz     (498 m%)
    ac: freq = 3.108 kHz   (38.8 %), step = 304.5 Hz     (498 m%)
    ac: freq = 3.446 kHz   (39.3 %), step = 337.6 Hz     (498 m%)
    ac: freq = 3.82 kHz    (39.8 %), step = 374.2 Hz     (498 m%)
    ac: freq = 4.235 kHz   (40.3 %), step = 414.9 Hz     (498 m%)
    ac: freq = 4.695 kHz   (40.8 %), step = 459.9 Hz     (498 m%)
    ac: freq = 5.205 kHz   (41.3 %), step = 509.9 Hz     (498 m%)
    ac: freq = 5.77 kHz    (41.8 %), step = 565.3 Hz     (498 m%)
    ac: freq = 6.397 kHz   (42.3 %), step = 626.7 Hz     (498 m%)
    ac: freq = 7.092 kHz   (42.8 %), step = 694.7 Hz     (498 m%)
    ac: freq = 7.862 kHz   (43.3 %), step = 770.2 Hz     (498 m%)
    ac: freq = 8.716 kHz   (43.8 %), step = 853.8 Hz     (498 m%)
    ac: freq = 9.662 kHz   (44.3 %), step = 946.5 Hz     (498 m%)
    ac: freq = 10.71 kHz   (44.8 %), step = 1.049 kHz    (498 m%)
    ac: freq = 11.87 kHz   (45.3 %), step = 1.163 kHz    (498 m%)
    ac: freq = 13.16 kHz   (45.8 %), step = 1.29 kHz     (498 m%)
    ac: freq = 14.59 kHz   (46.3 %), step = 1.43 kHz     (498 m%)
    ac: freq = 16.18 kHz   (46.8 %), step = 1.585 kHz    (498 m%)
    ac: freq = 17.94 kHz   (47.3 %), step = 1.757 kHz    (498 m%)
    ac: freq = 19.88 kHz   (47.8 %), step = 1.948 kHz    (498 m%)
    ac: freq = 22.04 kHz   (48.3 %), step = 2.159 kHz    (498 m%)
    ac: freq = 24.44 kHz   (48.8 %), step = 2.394 kHz    (498 m%)
    ac: freq = 27.09 kHz   (49.3 %), step = 2.654 kHz    (498 m%)
    ac: freq = 30.03 kHz   (49.8 %), step = 2.942 kHz    (498 m%)
    ac: freq = 33.3 kHz    (50.2 %), step = 3.262 kHz    (498 m%)
    ac: freq = 36.91 kHz   (50.7 %), step = 3.616 kHz    (498 m%)
    ac: freq = 40.92 kHz   (51.2 %), step = 4.009 kHz    (498 m%)
    ac: freq = 45.36 kHz   (51.7 %), step = 4.444 kHz    (498 m%)
    ac: freq = 50.29 kHz   (52.2 %), step = 4.927 kHz    (498 m%)
    ac: freq = 55.75 kHz   (52.7 %), step = 5.462 kHz    (498 m%)
    ac: freq = 61.81 kHz   (53.2 %), step = 6.055 kHz    (498 m%)
    ac: freq = 68.52 kHz   (53.7 %), step = 6.713 kHz    (498 m%)
    ac: freq = 75.96 kHz   (54.2 %), step = 7.442 kHz    (498 m%)
    ac: freq = 84.21 kHz   (54.7 %), step = 8.25 kHz     (498 m%)
    ac: freq = 93.36 kHz   (55.2 %), step = 9.146 kHz    (498 m%)
    ac: freq = 103.5 kHz   (55.7 %), step = 10.14 kHz    (498 m%)
    ac: freq = 114.7 kHz   (56.2 %), step = 11.24 kHz    (498 m%)
    ac: freq = 127.2 kHz   (56.7 %), step = 12.46 kHz    (498 m%)
    ac: freq = 141 kHz     (57.2 %), step = 13.81 kHz    (498 m%)
    ac: freq = 156.3 kHz   (57.7 %), step = 15.31 kHz    (498 m%)
    ac: freq = 173.3 kHz   (58.2 %), step = 16.98 kHz    (498 m%)
    ac: freq = 192.1 kHz   (58.7 %), step = 18.82 kHz    (498 m%)
    ac: freq = 213 kHz     (59.2 %), step = 20.87 kHz    (498 m%)
    ac: freq = 236.1 kHz   (59.7 %), step = 23.13 kHz    (498 m%)
    ac: freq = 261.8 kHz   (60.2 %), step = 25.64 kHz    (498 m%)
    ac: freq = 290.2 kHz   (60.7 %), step = 28.43 kHz    (498 m%)
    ac: freq = 321.7 kHz   (61.2 %), step = 31.52 kHz    (498 m%)
    ac: freq = 356.6 kHz   (61.7 %), step = 34.94 kHz    (498 m%)
    ac: freq = 395.4 kHz   (62.2 %), step = 38.73 kHz    (498 m%)
    ac: freq = 438.3 kHz   (62.7 %), step = 42.94 kHz    (498 m%)
    ac: freq = 485.9 kHz   (63.2 %), step = 47.6 kHz     (498 m%)
    ac: freq = 538.7 kHz   (63.7 %), step = 52.77 kHz    (498 m%)
    ac: freq = 597.2 kHz   (64.2 %), step = 58.5 kHz     (498 m%)
    ac: freq = 662.1 kHz   (64.7 %), step = 64.86 kHz    (498 m%)
    ac: freq = 734 kHz     (65.2 %), step = 71.9 kHz     (498 m%)
    ac: freq = 813.7 kHz   (65.7 %), step = 79.71 kHz    (498 m%)
    ac: freq = 902 kHz     (66.2 %), step = 88.37 kHz    (498 m%)
    ac: freq = 1 MHz       (66.7 %), step = 97.96 kHz    (498 m%)
    ac: freq = 1.109 MHz   (67.2 %), step = 108.6 kHz    (498 m%)
    ac: freq = 1.229 MHz   (67.7 %), step = 120.4 kHz    (498 m%)
    ac: freq = 1.362 MHz   (68.2 %), step = 133.5 kHz    (498 m%)
    ac: freq = 1.51 MHz    (68.7 %), step = 148 kHz      (498 m%)
    ac: freq = 1.674 MHz   (69.2 %), step = 164 kHz      (498 m%)
    ac: freq = 1.856 MHz   (69.7 %), step = 181.9 kHz    (498 m%)
    ac: freq = 2.058 MHz   (70.1 %), step = 201.6 kHz    (498 m%)
    ac: freq = 2.281 MHz   (70.6 %), step = 223.5 kHz    (498 m%)
    ac: freq = 2.529 MHz   (71.1 %), step = 247.8 kHz    (498 m%)
    ac: freq = 2.804 MHz   (71.6 %), step = 274.7 kHz    (498 m%)
    ac: freq = 3.108 MHz   (72.1 %), step = 304.5 kHz    (498 m%)
    ac: freq = 3.446 MHz   (72.6 %), step = 337.6 kHz    (498 m%)
    ac: freq = 3.82 MHz    (73.1 %), step = 374.2 kHz    (498 m%)
    ac: freq = 4.235 MHz   (73.6 %), step = 414.9 kHz    (498 m%)
    ac: freq = 4.695 MHz   (74.1 %), step = 459.9 kHz    (498 m%)
    ac: freq = 5.205 MHz   (74.6 %), step = 509.9 kHz    (498 m%)
    ac: freq = 5.77 MHz    (75.1 %), step = 565.3 kHz    (498 m%)
    ac: freq = 6.397 MHz   (75.6 %), step = 626.7 kHz    (498 m%)
    ac: freq = 7.092 MHz   (76.1 %), step = 694.7 kHz    (498 m%)
    ac: freq = 7.862 MHz   (76.6 %), step = 770.2 kHz    (498 m%)
    ac: freq = 8.716 MHz   (77.1 %), step = 853.8 kHz    (498 m%)
    ac: freq = 9.662 MHz   (77.6 %), step = 946.5 kHz    (498 m%)
    ac: freq = 10.71 MHz   (78.1 %), step = 1.049 MHz    (498 m%)
    ac: freq = 11.87 MHz   (78.6 %), step = 1.163 MHz    (498 m%)
    ac: freq = 13.16 MHz   (79.1 %), step = 1.29 MHz     (498 m%)
    ac: freq = 14.59 MHz   (79.6 %), step = 1.43 MHz     (498 m%)
    ac: freq = 16.18 MHz   (80.1 %), step = 1.585 MHz    (498 m%)
    ac: freq = 17.94 MHz   (80.6 %), step = 1.757 MHz    (498 m%)
    ac: freq = 19.88 MHz   (81.1 %), step = 1.948 MHz    (498 m%)
    ac: freq = 22.04 MHz   (81.6 %), step = 2.159 MHz    (498 m%)
    ac: freq = 24.44 MHz   (82.1 %), step = 2.394 MHz    (498 m%)
    ac: freq = 27.09 MHz   (82.6 %), step = 2.654 MHz    (498 m%)
    ac: freq = 30.03 MHz   (83.1 %), step = 2.942 MHz    (498 m%)
    ac: freq = 33.3 MHz    (83.6 %), step = 3.262 MHz    (498 m%)
    ac: freq = 36.91 MHz   (84.1 %), step = 3.616 MHz    (498 m%)
    ac: freq = 40.92 MHz   (84.6 %), step = 4.009 MHz    (498 m%)
    ac: freq = 45.36 MHz   (85.1 %), step = 4.444 MHz    (498 m%)
    ac: freq = 50.29 MHz   (85.6 %), step = 4.927 MHz    (498 m%)
    ac: freq = 55.75 MHz   (86.1 %), step = 5.462 MHz    (498 m%)
    ac: freq = 61.81 MHz   (86.6 %), step = 6.055 MHz    (498 m%)
    ac: freq = 68.52 MHz   (87.1 %), step = 6.713 MHz    (498 m%)
    ac: freq = 75.96 MHz   (87.6 %), step = 7.442 MHz    (498 m%)
    ac: freq = 84.21 MHz   (88.1 %), step = 8.25 MHz     (498 m%)
    ac: freq = 93.36 MHz   (88.6 %), step = 9.146 MHz    (498 m%)
    ac: freq = 103.5 MHz   (89.1 %), step = 10.14 MHz    (498 m%)
    ac: freq = 114.7 MHz   (89.6 %), step = 11.24 MHz    (498 m%)
    ac: freq = 127.2 MHz     (90 %), step = 12.46 MHz    (498 m%)
    ac: freq = 141 MHz     (90.5 %), step = 13.81 MHz    (498 m%)
    ac: freq = 156.3 MHz     (91 %), step = 15.31 MHz    (498 m%)
    ac: freq = 173.3 MHz   (91.5 %), step = 16.98 MHz    (498 m%)
    ac: freq = 192.1 MHz     (92 %), step = 18.82 MHz    (498 m%)
    ac: freq = 213 MHz     (92.5 %), step = 20.87 MHz    (498 m%)
    ac: freq = 236.1 MHz     (93 %), step = 23.13 MHz    (498 m%)
    ac: freq = 261.8 MHz   (93.5 %), step = 25.64 MHz    (498 m%)
    ac: freq = 290.2 MHz     (94 %), step = 28.43 MHz    (498 m%)
    ac: freq = 321.7 MHz   (94.5 %), step = 31.52 MHz    (498 m%)
    ac: freq = 356.6 MHz     (95 %), step = 34.94 MHz    (498 m%)
    ac: freq = 395.4 MHz   (95.5 %), step = 38.73 MHz    (498 m%)
    ac: freq = 438.3 MHz     (96 %), step = 42.94 MHz    (498 m%)
    ac: freq = 485.9 MHz   (96.5 %), step = 47.6 MHz     (498 m%)
    ac: freq = 538.7 MHz     (97 %), step = 52.77 MHz    (498 m%)
    ac: freq = 597.2 MHz   (97.5 %), step = 58.5 MHz     (498 m%)
    ac: freq = 662.1 MHz     (98 %), step = 64.86 MHz    (498 m%)
    ac: freq = 734 MHz     (98.5 %), step = 71.9 MHz     (498 m%)
    ac: freq = 813.7 MHz     (99 %), step = 79.71 MHz    (498 m%)
    ac: freq = 902 MHz     (99.5 %), step = 88.37 MHz    (498 m%)
    ac: freq = 1 GHz        (100 %), step = 97.96 MHz    (498 m%)
Accumulated DC solution time =            0 s.
Intrinsic ac analysis time =              0 s.
Total time required for ac analysis `ac': CPU = 9.818 ms, elapsed = 12.0001 ms.
Time accumulated: CPU = 223.884 ms, elapsed = 1.80654 s.
Peak resident memory used = 126 Mbytes.

modelParameter: writing model parameter values to rawfile.

Opening the PSF file ../../../../../../../psf/modelParameter.info ...
element: writing instance parameter values to rawfile.

Opening the PSF file ../../../../../../../psf/element.info ...
outputParameter: writing output parameter values to rawfile.

Opening the PSF file ../../../../../../../psf/outputParameter.info ...
designParamVals: writing netlist parameters to rawfile.

Opening the PSFASCII file ../../../../../../../psf/designParamVals.info ...
primitives: writing primitives to rawfile.

Opening the PSFASCII file ../../../../../../../psf/primitives.info.primitives ...
subckts: writing subcircuits to rawfile.

Opening the PSFASCII file ../../../../../../../psf/subckts.info.subckts ...

Warning from spectre.
    WARNING (SPECTRE-17101): The value 'psf' specified for the 'checklimitdest' option will no longer be supported in future releases. Use 'spectre -h' to see other recommended values for the 'checklimitdest' option.


****************************************
AC Analysis `ac': freq = (1 Hz -> 1 GHz)
****************************************
DC simulation time: CPU = 427 us, elapsed = 432.968 us.

Opening the PSF file ../../../../../../../psf/ac.ac ...
    ac: freq = 1.856 Hz    (2.99 %), step = 181.9 mHz    (498 m%)
    ac: freq = 2.058 Hz    (3.48 %), step = 201.6 mHz    (498 m%)
    ac: freq = 2.281 Hz    (3.98 %), step = 223.5 mHz    (498 m%)
    ac: freq = 2.529 Hz    (4.48 %), step = 247.8 mHz    (498 m%)
    ac: freq = 2.804 Hz    (4.98 %), step = 274.7 mHz    (498 m%)
    ac: freq = 3.108 Hz    (5.47 %), step = 304.5 mHz    (498 m%)
    ac: freq = 3.446 Hz    (5.97 %), step = 337.6 mHz    (498 m%)
    ac: freq = 3.82 Hz     (6.47 %), step = 374.2 mHz    (498 m%)
    ac: freq = 4.235 Hz    (6.97 %), step = 414.9 mHz    (498 m%)
    ac: freq = 4.695 Hz    (7.46 %), step = 459.9 mHz    (498 m%)
    ac: freq = 5.205 Hz    (7.96 %), step = 509.9 mHz    (498 m%)
    ac: freq = 5.77 Hz     (8.46 %), step = 565.3 mHz    (498 m%)
    ac: freq = 6.397 Hz    (8.96 %), step = 626.7 mHz    (498 m%)
    ac: freq = 7.092 Hz    (9.45 %), step = 694.7 mHz    (498 m%)
    ac: freq = 7.862 Hz    (9.95 %), step = 770.2 mHz    (498 m%)
    ac: freq = 8.716 Hz    (10.4 %), step = 853.8 mHz    (498 m%)
    ac: freq = 9.662 Hz    (10.9 %), step = 946.5 mHz    (498 m%)
    ac: freq = 10.71 Hz    (11.4 %), step = 1.049 Hz     (498 m%)
    ac: freq = 11.87 Hz    (11.9 %), step = 1.163 Hz     (498 m%)
    ac: freq = 13.16 Hz    (12.4 %), step = 1.29 Hz      (498 m%)
    ac: freq = 14.59 Hz    (12.9 %), step = 1.43 Hz      (498 m%)
    ac: freq = 16.18 Hz    (13.4 %), step = 1.585 Hz     (498 m%)
    ac: freq = 17.94 Hz    (13.9 %), step = 1.757 Hz     (498 m%)
    ac: freq = 19.88 Hz    (14.4 %), step = 1.948 Hz     (498 m%)
    ac: freq = 22.04 Hz    (14.9 %), step = 2.159 Hz     (498 m%)
    ac: freq = 24.44 Hz    (15.4 %), step = 2.394 Hz     (498 m%)
    ac: freq = 27.09 Hz    (15.9 %), step = 2.654 Hz     (498 m%)
    ac: freq = 30.03 Hz    (16.4 %), step = 2.942 Hz     (498 m%)
    ac: freq = 33.3 Hz     (16.9 %), step = 3.262 Hz     (498 m%)
    ac: freq = 36.91 Hz    (17.4 %), step = 3.616 Hz     (498 m%)
    ac: freq = 40.92 Hz    (17.9 %), step = 4.009 Hz     (498 m%)
    ac: freq = 45.36 Hz    (18.4 %), step = 4.444 Hz     (498 m%)
    ac: freq = 50.29 Hz    (18.9 %), step = 4.927 Hz     (498 m%)
    ac: freq = 55.75 Hz    (19.4 %), step = 5.462 Hz     (498 m%)
    ac: freq = 61.81 Hz    (19.9 %), step = 6.055 Hz     (498 m%)
    ac: freq = 68.52 Hz    (20.4 %), step = 6.713 Hz     (498 m%)
    ac: freq = 75.96 Hz    (20.9 %), step = 7.442 Hz     (498 m%)
    ac: freq = 84.21 Hz    (21.4 %), step = 8.25 Hz      (498 m%)
    ac: freq = 93.36 Hz    (21.9 %), step = 9.146 Hz     (498 m%)
    ac: freq = 103.5 Hz    (22.4 %), step = 10.14 Hz     (498 m%)
    ac: freq = 114.7 Hz    (22.9 %), step = 11.24 Hz     (498 m%)
    ac: freq = 127.2 Hz    (23.4 %), step = 12.46 Hz     (498 m%)
    ac: freq = 141 Hz      (23.9 %), step = 13.81 Hz     (498 m%)
    ac: freq = 156.3 Hz    (24.4 %), step = 15.31 Hz     (498 m%)
    ac: freq = 173.3 Hz    (24.9 %), step = 16.98 Hz     (498 m%)
    ac: freq = 192.1 Hz    (25.4 %), step = 18.82 Hz     (498 m%)
    ac: freq = 213 Hz      (25.9 %), step = 20.87 Hz     (498 m%)
    ac: freq = 236.1 Hz    (26.4 %), step = 23.13 Hz     (498 m%)
    ac: freq = 261.8 Hz    (26.9 %), step = 25.64 Hz     (498 m%)
    ac: freq = 290.2 Hz    (27.4 %), step = 28.43 Hz     (498 m%)
    ac: freq = 321.7 Hz    (27.9 %), step = 31.52 Hz     (498 m%)
    ac: freq = 356.6 Hz    (28.4 %), step = 34.94 Hz     (498 m%)
    ac: freq = 395.4 Hz    (28.9 %), step = 38.73 Hz     (498 m%)
    ac: freq = 438.3 Hz    (29.4 %), step = 42.94 Hz     (498 m%)
    ac: freq = 485.9 Hz    (29.9 %), step = 47.6 Hz      (498 m%)
    ac: freq = 538.7 Hz    (30.3 %), step = 52.77 Hz     (498 m%)
    ac: freq = 597.2 Hz    (30.8 %), step = 58.5 Hz      (498 m%)
    ac: freq = 662.1 Hz    (31.3 %), step = 64.86 Hz     (498 m%)
    ac: freq = 734 Hz      (31.8 %), step = 71.9 Hz      (498 m%)
    ac: freq = 813.7 Hz    (32.3 %), step = 79.71 Hz     (498 m%)
    ac: freq = 902 Hz      (32.8 %), step = 88.37 Hz     (498 m%)
    ac: freq = 1 kHz       (33.3 %), step = 97.96 Hz     (498 m%)
    ac: freq = 1.109 kHz   (33.8 %), step = 108.6 Hz     (498 m%)
    ac: freq = 1.229 kHz   (34.3 %), step = 120.4 Hz     (498 m%)
    ac: freq = 1.362 kHz   (34.8 %), step = 133.5 Hz     (498 m%)
    ac: freq = 1.51 kHz    (35.3 %), step = 148 Hz       (498 m%)
    ac: freq = 1.674 kHz   (35.8 %), step = 164 Hz       (498 m%)
    ac: freq = 1.856 kHz   (36.3 %), step = 181.9 Hz     (498 m%)
    ac: freq = 2.058 kHz   (36.8 %), step = 201.6 Hz     (498 m%)
    ac: freq = 2.281 kHz   (37.3 %), step = 223.5 Hz     (498 m%)
    ac: freq = 2.529 kHz   (37.8 %), step = 247.8 Hz     (498 m%)
    ac: freq = 2.804 kHz   (38.3 %), step = 274.7 Hz     (498 m%)
    ac: freq = 3.108 kHz   (38.8 %), step = 304.5 Hz     (498 m%)
    ac: freq = 3.446 kHz   (39.3 %), step = 337.6 Hz     (498 m%)
    ac: freq = 3.82 kHz    (39.8 %), step = 374.2 Hz     (498 m%)
    ac: freq = 4.235 kHz   (40.3 %), step = 414.9 Hz     (498 m%)
    ac: freq = 4.695 kHz   (40.8 %), step = 459.9 Hz     (498 m%)
    ac: freq = 5.205 kHz   (41.3 %), step = 509.9 Hz     (498 m%)
    ac: freq = 5.77 kHz    (41.8 %), step = 565.3 Hz     (498 m%)
    ac: freq = 6.397 kHz   (42.3 %), step = 626.7 Hz     (498 m%)
    ac: freq = 7.092 kHz   (42.8 %), step = 694.7 Hz     (498 m%)
    ac: freq = 7.862 kHz   (43.3 %), step = 770.2 Hz     (498 m%)
    ac: freq = 8.716 kHz   (43.8 %), step = 853.8 Hz     (498 m%)
    ac: freq = 9.662 kHz   (44.3 %), step = 946.5 Hz     (498 m%)
    ac: freq = 10.71 kHz   (44.8 %), step = 1.049 kHz    (498 m%)
    ac: freq = 11.87 kHz   (45.3 %), step = 1.163 kHz    (498 m%)
    ac: freq = 13.16 kHz   (45.8 %), step = 1.29 kHz     (498 m%)
    ac: freq = 14.59 kHz   (46.3 %), step = 1.43 kHz     (498 m%)
    ac: freq = 16.18 kHz   (46.8 %), step = 1.585 kHz    (498 m%)
    ac: freq = 17.94 kHz   (47.3 %), step = 1.757 kHz    (498 m%)
    ac: freq = 19.88 kHz   (47.8 %), step = 1.948 kHz    (498 m%)
    ac: freq = 22.04 kHz   (48.3 %), step = 2.159 kHz    (498 m%)
    ac: freq = 24.44 kHz   (48.8 %), step = 2.394 kHz    (498 m%)
    ac: freq = 27.09 kHz   (49.3 %), step = 2.654 kHz    (498 m%)
    ac: freq = 30.03 kHz   (49.8 %), step = 2.942 kHz    (498 m%)
    ac: freq = 33.3 kHz    (50.2 %), step = 3.262 kHz    (498 m%)
    ac: freq = 36.91 kHz   (50.7 %), step = 3.616 kHz    (498 m%)
    ac: freq = 40.92 kHz   (51.2 %), step = 4.009 kHz    (498 m%)
    ac: freq = 45.36 kHz   (51.7 %), step = 4.444 kHz    (498 m%)
    ac: freq = 50.29 kHz   (52.2 %), step = 4.927 kHz    (498 m%)
    ac: freq = 55.75 kHz   (52.7 %), step = 5.462 kHz    (498 m%)
    ac: freq = 61.81 kHz   (53.2 %), step = 6.055 kHz    (498 m%)
    ac: freq = 68.52 kHz   (53.7 %), step = 6.713 kHz    (498 m%)
    ac: freq = 75.96 kHz   (54.2 %), step = 7.442 kHz    (498 m%)
    ac: freq = 84.21 kHz   (54.7 %), step = 8.25 kHz     (498 m%)
    ac: freq = 93.36 kHz   (55.2 %), step = 9.146 kHz    (498 m%)
    ac: freq = 103.5 kHz   (55.7 %), step = 10.14 kHz    (498 m%)
    ac: freq = 114.7 kHz   (56.2 %), step = 11.24 kHz    (498 m%)
    ac: freq = 127.2 kHz   (56.7 %), step = 12.46 kHz    (498 m%)
    ac: freq = 141 kHz     (57.2 %), step = 13.81 kHz    (498 m%)
    ac: freq = 156.3 kHz   (57.7 %), step = 15.31 kHz    (498 m%)
    ac: freq = 173.3 kHz   (58.2 %), step = 16.98 kHz    (498 m%)
    ac: freq = 192.1 kHz   (58.7 %), step = 18.82 kHz    (498 m%)
    ac: freq = 213 kHz     (59.2 %), step = 20.87 kHz    (498 m%)
    ac: freq = 236.1 kHz   (59.7 %), step = 23.13 kHz    (498 m%)
    ac: freq = 261.8 kHz   (60.2 %), step = 25.64 kHz    (498 m%)
    ac: freq = 290.2 kHz   (60.7 %), step = 28.43 kHz    (498 m%)
    ac: freq = 321.7 kHz   (61.2 %), step = 31.52 kHz    (498 m%)
    ac: freq = 356.6 kHz   (61.7 %), step = 34.94 kHz    (498 m%)
    ac: freq = 395.4 kHz   (62.2 %), step = 38.73 kHz    (498 m%)
    ac: freq = 438.3 kHz   (62.7 %), step = 42.94 kHz    (498 m%)
    ac: freq = 485.9 kHz   (63.2 %), step = 47.6 kHz     (498 m%)
    ac: freq = 538.7 kHz   (63.7 %), step = 52.77 kHz    (498 m%)
    ac: freq = 597.2 kHz   (64.2 %), step = 58.5 kHz     (498 m%)
    ac: freq = 662.1 kHz   (64.7 %), step = 64.86 kHz    (498 m%)
    ac: freq = 734 kHz     (65.2 %), step = 71.9 kHz     (498 m%)
    ac: freq = 813.7 kHz   (65.7 %), step = 79.71 kHz    (498 m%)
    ac: freq = 902 kHz     (66.2 %), step = 88.37 kHz    (498 m%)
    ac: freq = 1 MHz       (66.7 %), step = 97.96 kHz    (498 m%)
    ac: freq = 1.109 MHz   (67.2 %), step = 108.6 kHz    (498 m%)
    ac: freq = 1.229 MHz   (67.7 %), step = 120.4 kHz    (498 m%)
    ac: freq = 1.362 MHz   (68.2 %), step = 133.5 kHz    (498 m%)
    ac: freq = 1.51 MHz    (68.7 %), step = 148 kHz      (498 m%)
    ac: freq = 1.674 MHz   (69.2 %), step = 164 kHz      (498 m%)
    ac: freq = 1.856 MHz   (69.7 %), step = 181.9 kHz    (498 m%)
    ac: freq = 2.058 MHz   (70.1 %), step = 201.6 kHz    (498 m%)
    ac: freq = 2.281 MHz   (70.6 %), step = 223.5 kHz    (498 m%)
    ac: freq = 2.529 MHz   (71.1 %), step = 247.8 kHz    (498 m%)
    ac: freq = 2.804 MHz   (71.6 %), step = 274.7 kHz    (498 m%)
    ac: freq = 3.108 MHz   (72.1 %), step = 304.5 kHz    (498 m%)
    ac: freq = 3.446 MHz   (72.6 %), step = 337.6 kHz    (498 m%)
    ac: freq = 3.82 MHz    (73.1 %), step = 374.2 kHz    (498 m%)
    ac: freq = 4.235 MHz   (73.6 %), step = 414.9 kHz    (498 m%)
    ac: freq = 4.695 MHz   (74.1 %), step = 459.9 kHz    (498 m%)
    ac: freq = 5.205 MHz   (74.6 %), step = 509.9 kHz    (498 m%)
    ac: freq = 5.77 MHz    (75.1 %), step = 565.3 kHz    (498 m%)
    ac: freq = 6.397 MHz   (75.6 %), step = 626.7 kHz    (498 m%)
    ac: freq = 7.092 MHz   (76.1 %), step = 694.7 kHz    (498 m%)
    ac: freq = 7.862 MHz   (76.6 %), step = 770.2 kHz    (498 m%)
    ac: freq = 8.716 MHz   (77.1 %), step = 853.8 kHz    (498 m%)
    ac: freq = 9.662 MHz   (77.6 %), step = 946.5 kHz    (498 m%)
    ac: freq = 10.71 MHz   (78.1 %), step = 1.049 MHz    (498 m%)
    ac: freq = 11.87 MHz   (78.6 %), step = 1.163 MHz    (498 m%)
    ac: freq = 13.16 MHz   (79.1 %), step = 1.29 MHz     (498 m%)
    ac: freq = 14.59 MHz   (79.6 %), step = 1.43 MHz     (498 m%)
    ac: freq = 16.18 MHz   (80.1 %), step = 1.585 MHz    (498 m%)
    ac: freq = 17.94 MHz   (80.6 %), step = 1.757 MHz    (498 m%)
    ac: freq = 19.88 MHz   (81.1 %), step = 1.948 MHz    (498 m%)
    ac: freq = 22.04 MHz   (81.6 %), step = 2.159 MHz    (498 m%)
    ac: freq = 24.44 MHz   (82.1 %), step = 2.394 MHz    (498 m%)
    ac: freq = 27.09 MHz   (82.6 %), step = 2.654 MHz    (498 m%)
    ac: freq = 30.03 MHz   (83.1 %), step = 2.942 MHz    (498 m%)
    ac: freq = 33.3 MHz    (83.6 %), step = 3.262 MHz    (498 m%)
    ac: freq = 36.91 MHz   (84.1 %), step = 3.616 MHz    (498 m%)
    ac: freq = 40.92 MHz   (84.6 %), step = 4.009 MHz    (498 m%)
    ac: freq = 45.36 MHz   (85.1 %), step = 4.444 MHz    (498 m%)
    ac: freq = 50.29 MHz   (85.6 %), step = 4.927 MHz    (498 m%)
    ac: freq = 55.75 MHz   (86.1 %), step = 5.462 MHz    (498 m%)
    ac: freq = 61.81 MHz   (86.6 %), step = 6.055 MHz    (498 m%)
    ac: freq = 68.52 MHz   (87.1 %), step = 6.713 MHz    (498 m%)
    ac: freq = 75.96 MHz   (87.6 %), step = 7.442 MHz    (498 m%)
    ac: freq = 84.21 MHz   (88.1 %), step = 8.25 MHz     (498 m%)
    ac: freq = 93.36 MHz   (88.6 %), step = 9.146 MHz    (498 m%)
    ac: freq = 103.5 MHz   (89.1 %), step = 10.14 MHz    (498 m%)
    ac: freq = 114.7 MHz   (89.6 %), step = 11.24 MHz    (498 m%)
    ac: freq = 127.2 MHz     (90 %), step = 12.46 MHz    (498 m%)
    ac: freq = 141 MHz     (90.5 %), step = 13.81 MHz    (498 m%)
    ac: freq = 156.3 MHz     (91 %), step = 15.31 MHz    (498 m%)
    ac: freq = 173.3 MHz   (91.5 %), step = 16.98 MHz    (498 m%)
    ac: freq = 192.1 MHz     (92 %), step = 18.82 MHz    (498 m%)
    ac: freq = 213 MHz     (92.5 %), step = 20.87 MHz    (498 m%)
    ac: freq = 236.1 MHz     (93 %), step = 23.13 MHz    (498 m%)
    ac: freq = 261.8 MHz   (93.5 %), step = 25.64 MHz    (498 m%)
    ac: freq = 290.2 MHz     (94 %), step = 28.43 MHz    (498 m%)
    ac: freq = 321.7 MHz   (94.5 %), step = 31.52 MHz    (498 m%)
    ac: freq = 356.6 MHz     (95 %), step = 34.94 MHz    (498 m%)
    ac: freq = 395.4 MHz   (95.5 %), step = 38.73 MHz    (498 m%)
    ac: freq = 438.3 MHz     (96 %), step = 42.94 MHz    (498 m%)
    ac: freq = 485.9 MHz   (96.5 %), step = 47.6 MHz     (498 m%)
    ac: freq = 538.7 MHz     (97 %), step = 52.77 MHz    (498 m%)
    ac: freq = 597.2 MHz   (97.5 %), step = 58.5 MHz     (498 m%)
    ac: freq = 662.1 MHz     (98 %), step = 64.86 MHz    (498 m%)
    ac: freq = 734 MHz     (98.5 %), step = 71.9 MHz     (498 m%)
    ac: freq = 813.7 MHz     (99 %), step = 79.71 MHz    (498 m%)
    ac: freq = 902 MHz     (99.5 %), step = 88.37 MHz    (498 m%)
    ac: freq = 1 GHz        (100 %), step = 97.96 MHz    (498 m%)
Accumulated DC solution time =            0 s.
Intrinsic ac analysis time =              0 s.
Total time required for ac analysis `ac': CPU = 9.815 ms, elapsed = 11.5161 ms.
Time accumulated: CPU = 248.54 ms, elapsed = 3.11561 s.
Peak resident memory used = 127 Mbytes.

modelParameter: writing model parameter values to rawfile.

Opening the PSF file ../../../../../../../psf/modelParameter.info ...
element: writing instance parameter values to rawfile.

Opening the PSF file ../../../../../../../psf/element.info ...
outputParameter: writing output parameter values to rawfile.

Opening the PSF file ../../../../../../../psf/outputParameter.info ...
designParamVals: writing netlist parameters to rawfile.

Opening the PSFASCII file ../../../../../../../psf/designParamVals.info ...
primitives: writing primitives to rawfile.

Opening the PSFASCII file ../../../../../../../psf/primitives.info.primitives ...
subckts: writing subcircuits to rawfile.

Opening the PSFASCII file ../../../../../../../psf/subckts.info.subckts ...

Warning from spectre.
    WARNING (SPECTRE-17101): The value 'psf' specified for the 'checklimitdest' option will no longer be supported in future releases. Use 'spectre -h' to see other recommended values for the 'checklimitdest' option.


****************************************
AC Analysis `ac': freq = (1 Hz -> 1 GHz)
****************************************
DC simulation time: CPU = 383 us, elapsed = 390.053 us.

Opening the PSF file ../../../../../../../psf/ac.ac ...
    ac: freq = 1.856 Hz    (2.99 %), step = 181.9 mHz    (498 m%)
    ac: freq = 2.058 Hz    (3.48 %), step = 201.6 mHz    (498 m%)
    ac: freq = 2.281 Hz    (3.98 %), step = 223.5 mHz    (498 m%)
    ac: freq = 2.529 Hz    (4.48 %), step = 247.8 mHz    (498 m%)
    ac: freq = 2.804 Hz    (4.98 %), step = 274.7 mHz    (498 m%)
    ac: freq = 3.108 Hz    (5.47 %), step = 304.5 mHz    (498 m%)
    ac: freq = 3.446 Hz    (5.97 %), step = 337.6 mHz    (498 m%)
    ac: freq = 3.82 Hz     (6.47 %), step = 374.2 mHz    (498 m%)
    ac: freq = 4.235 Hz    (6.97 %), step = 414.9 mHz    (498 m%)
    ac: freq = 4.695 Hz    (7.46 %), step = 459.9 mHz    (498 m%)
    ac: freq = 5.205 Hz    (7.96 %), step = 509.9 mHz    (498 m%)
    ac: freq = 5.77 Hz     (8.46 %), step = 565.3 mHz    (498 m%)
    ac: freq = 6.397 Hz    (8.96 %), step = 626.7 mHz    (498 m%)
    ac: freq = 7.092 Hz    (9.45 %), step = 694.7 mHz    (498 m%)
    ac: freq = 7.862 Hz    (9.95 %), step = 770.2 mHz    (498 m%)
    ac: freq = 8.716 Hz    (10.4 %), step = 853.8 mHz    (498 m%)
    ac: freq = 9.662 Hz    (10.9 %), step = 946.5 mHz    (498 m%)
    ac: freq = 10.71 Hz    (11.4 %), step = 1.049 Hz     (498 m%)
    ac: freq = 11.87 Hz    (11.9 %), step = 1.163 Hz     (498 m%)
    ac: freq = 13.16 Hz    (12.4 %), step = 1.29 Hz      (498 m%)
    ac: freq = 14.59 Hz    (12.9 %), step = 1.43 Hz      (498 m%)
    ac: freq = 16.18 Hz    (13.4 %), step = 1.585 Hz     (498 m%)
    ac: freq = 17.94 Hz    (13.9 %), step = 1.757 Hz     (498 m%)
    ac: freq = 19.88 Hz    (14.4 %), step = 1.948 Hz     (498 m%)
    ac: freq = 22.04 Hz    (14.9 %), step = 2.159 Hz     (498 m%)
    ac: freq = 24.44 Hz    (15.4 %), step = 2.394 Hz     (498 m%)
    ac: freq = 27.09 Hz    (15.9 %), step = 2.654 Hz     (498 m%)
    ac: freq = 30.03 Hz    (16.4 %), step = 2.942 Hz     (498 m%)
    ac: freq = 33.3 Hz     (16.9 %), step = 3.262 Hz     (498 m%)
    ac: freq = 36.91 Hz    (17.4 %), step = 3.616 Hz     (498 m%)
    ac: freq = 40.92 Hz    (17.9 %), step = 4.009 Hz     (498 m%)
    ac: freq = 45.36 Hz    (18.4 %), step = 4.444 Hz     (498 m%)
    ac: freq = 50.29 Hz    (18.9 %), step = 4.927 Hz     (498 m%)
    ac: freq = 55.75 Hz    (19.4 %), step = 5.462 Hz     (498 m%)
    ac: freq = 61.81 Hz    (19.9 %), step = 6.055 Hz     (498 m%)
    ac: freq = 68.52 Hz    (20.4 %), step = 6.713 Hz     (498 m%)
    ac: freq = 75.96 Hz    (20.9 %), step = 7.442 Hz     (498 m%)
    ac: freq = 84.21 Hz    (21.4 %), step = 8.25 Hz      (498 m%)
    ac: freq = 93.36 Hz    (21.9 %), step = 9.146 Hz     (498 m%)
    ac: freq = 103.5 Hz    (22.4 %), step = 10.14 Hz     (498 m%)
    ac: freq = 114.7 Hz    (22.9 %), step = 11.24 Hz     (498 m%)
    ac: freq = 127.2 Hz    (23.4 %), step = 12.46 Hz     (498 m%)
    ac: freq = 141 Hz      (23.9 %), step = 13.81 Hz     (498 m%)
    ac: freq = 156.3 Hz    (24.4 %), step = 15.31 Hz     (498 m%)
    ac: freq = 173.3 Hz    (24.9 %), step = 16.98 Hz     (498 m%)
    ac: freq = 192.1 Hz    (25.4 %), step = 18.82 Hz     (498 m%)
    ac: freq = 213 Hz      (25.9 %), step = 20.87 Hz     (498 m%)
    ac: freq = 236.1 Hz    (26.4 %), step = 23.13 Hz     (498 m%)
    ac: freq = 261.8 Hz    (26.9 %), step = 25.64 Hz     (498 m%)
    ac: freq = 290.2 Hz    (27.4 %), step = 28.43 Hz     (498 m%)
    ac: freq = 321.7 Hz    (27.9 %), step = 31.52 Hz     (498 m%)
    ac: freq = 356.6 Hz    (28.4 %), step = 34.94 Hz     (498 m%)
    ac: freq = 395.4 Hz    (28.9 %), step = 38.73 Hz     (498 m%)
    ac: freq = 438.3 Hz    (29.4 %), step = 42.94 Hz     (498 m%)
    ac: freq = 485.9 Hz    (29.9 %), step = 47.6 Hz      (498 m%)
    ac: freq = 538.7 Hz    (30.3 %), step = 52.77 Hz     (498 m%)
    ac: freq = 597.2 Hz    (30.8 %), step = 58.5 Hz      (498 m%)
    ac: freq = 662.1 Hz    (31.3 %), step = 64.86 Hz     (498 m%)
    ac: freq = 734 Hz      (31.8 %), step = 71.9 Hz      (498 m%)
    ac: freq = 813.7 Hz    (32.3 %), step = 79.71 Hz     (498 m%)
    ac: freq = 902 Hz      (32.8 %), step = 88.37 Hz     (498 m%)
    ac: freq = 1 kHz       (33.3 %), step = 97.96 Hz     (498 m%)
    ac: freq = 1.109 kHz   (33.8 %), step = 108.6 Hz     (498 m%)
    ac: freq = 1.229 kHz   (34.3 %), step = 120.4 Hz     (498 m%)
    ac: freq = 1.362 kHz   (34.8 %), step = 133.5 Hz     (498 m%)
    ac: freq = 1.51 kHz    (35.3 %), step = 148 Hz       (498 m%)
    ac: freq = 1.674 kHz   (35.8 %), step = 164 Hz       (498 m%)
    ac: freq = 1.856 kHz   (36.3 %), step = 181.9 Hz     (498 m%)
    ac: freq = 2.058 kHz   (36.8 %), step = 201.6 Hz     (498 m%)
    ac: freq = 2.281 kHz   (37.3 %), step = 223.5 Hz     (498 m%)
    ac: freq = 2.529 kHz   (37.8 %), step = 247.8 Hz     (498 m%)
    ac: freq = 2.804 kHz   (38.3 %), step = 274.7 Hz     (498 m%)
    ac: freq = 3.108 kHz   (38.8 %), step = 304.5 Hz     (498 m%)
    ac: freq = 3.446 kHz   (39.3 %), step = 337.6 Hz     (498 m%)
    ac: freq = 3.82 kHz    (39.8 %), step = 374.2 Hz     (498 m%)
    ac: freq = 4.235 kHz   (40.3 %), step = 414.9 Hz     (498 m%)
    ac: freq = 4.695 kHz   (40.8 %), step = 459.9 Hz     (498 m%)
    ac: freq = 5.205 kHz   (41.3 %), step = 509.9 Hz     (498 m%)
    ac: freq = 5.77 kHz    (41.8 %), step = 565.3 Hz     (498 m%)
    ac: freq = 6.397 kHz   (42.3 %), step = 626.7 Hz     (498 m%)
    ac: freq = 7.092 kHz   (42.8 %), step = 694.7 Hz     (498 m%)
    ac: freq = 7.862 kHz   (43.3 %), step = 770.2 Hz     (498 m%)
    ac: freq = 8.716 kHz   (43.8 %), step = 853.8 Hz     (498 m%)
    ac: freq = 9.662 kHz   (44.3 %), step = 946.5 Hz     (498 m%)
    ac: freq = 10.71 kHz   (44.8 %), step = 1.049 kHz    (498 m%)
    ac: freq = 11.87 kHz   (45.3 %), step = 1.163 kHz    (498 m%)
    ac: freq = 13.16 kHz   (45.8 %), step = 1.29 kHz     (498 m%)
    ac: freq = 14.59 kHz   (46.3 %), step = 1.43 kHz     (498 m%)
    ac: freq = 16.18 kHz   (46.8 %), step = 1.585 kHz    (498 m%)
    ac: freq = 17.94 kHz   (47.3 %), step = 1.757 kHz    (498 m%)
    ac: freq = 19.88 kHz   (47.8 %), step = 1.948 kHz    (498 m%)
    ac: freq = 22.04 kHz   (48.3 %), step = 2.159 kHz    (498 m%)
    ac: freq = 24.44 kHz   (48.8 %), step = 2.394 kHz    (498 m%)
    ac: freq = 27.09 kHz   (49.3 %), step = 2.654 kHz    (498 m%)
    ac: freq = 30.03 kHz   (49.8 %), step = 2.942 kHz    (498 m%)
    ac: freq = 33.3 kHz    (50.2 %), step = 3.262 kHz    (498 m%)
    ac: freq = 36.91 kHz   (50.7 %), step = 3.616 kHz    (498 m%)
    ac: freq = 40.92 kHz   (51.2 %), step = 4.009 kHz    (498 m%)
    ac: freq = 45.36 kHz   (51.7 %), step = 4.444 kHz    (498 m%)
    ac: freq = 50.29 kHz   (52.2 %), step = 4.927 kHz    (498 m%)
    ac: freq = 55.75 kHz   (52.7 %), step = 5.462 kHz    (498 m%)
    ac: freq = 61.81 kHz   (53.2 %), step = 6.055 kHz    (498 m%)
    ac: freq = 68.52 kHz   (53.7 %), step = 6.713 kHz    (498 m%)
    ac: freq = 75.96 kHz   (54.2 %), step = 7.442 kHz    (498 m%)
    ac: freq = 84.21 kHz   (54.7 %), step = 8.25 kHz     (498 m%)
    ac: freq = 93.36 kHz   (55.2 %), step = 9.146 kHz    (498 m%)
    ac: freq = 103.5 kHz   (55.7 %), step = 10.14 kHz    (498 m%)
    ac: freq = 114.7 kHz   (56.2 %), step = 11.24 kHz    (498 m%)
    ac: freq = 127.2 kHz   (56.7 %), step = 12.46 kHz    (498 m%)
    ac: freq = 141 kHz     (57.2 %), step = 13.81 kHz    (498 m%)
    ac: freq = 156.3 kHz   (57.7 %), step = 15.31 kHz    (498 m%)
    ac: freq = 173.3 kHz   (58.2 %), step = 16.98 kHz    (498 m%)
    ac: freq = 192.1 kHz   (58.7 %), step = 18.82 kHz    (498 m%)
    ac: freq = 213 kHz     (59.2 %), step = 20.87 kHz    (498 m%)
    ac: freq = 236.1 kHz   (59.7 %), step = 23.13 kHz    (498 m%)
    ac: freq = 261.8 kHz   (60.2 %), step = 25.64 kHz    (498 m%)
    ac: freq = 290.2 kHz   (60.7 %), step = 28.43 kHz    (498 m%)
    ac: freq = 321.7 kHz   (61.2 %), step = 31.52 kHz    (498 m%)
    ac: freq = 356.6 kHz   (61.7 %), step = 34.94 kHz    (498 m%)
    ac: freq = 395.4 kHz   (62.2 %), step = 38.73 kHz    (498 m%)
    ac: freq = 438.3 kHz   (62.7 %), step = 42.94 kHz    (498 m%)
    ac: freq = 485.9 kHz   (63.2 %), step = 47.6 kHz     (498 m%)
    ac: freq = 538.7 kHz   (63.7 %), step = 52.77 kHz    (498 m%)
    ac: freq = 597.2 kHz   (64.2 %), step = 58.5 kHz     (498 m%)
    ac: freq = 662.1 kHz   (64.7 %), step = 64.86 kHz    (498 m%)
    ac: freq = 734 kHz     (65.2 %), step = 71.9 kHz     (498 m%)
    ac: freq = 813.7 kHz   (65.7 %), step = 79.71 kHz    (498 m%)
    ac: freq = 902 kHz     (66.2 %), step = 88.37 kHz    (498 m%)
    ac: freq = 1 MHz       (66.7 %), step = 97.96 kHz    (498 m%)
    ac: freq = 1.109 MHz   (67.2 %), step = 108.6 kHz    (498 m%)
    ac: freq = 1.229 MHz   (67.7 %), step = 120.4 kHz    (498 m%)
    ac: freq = 1.362 MHz   (68.2 %), step = 133.5 kHz    (498 m%)
    ac: freq = 1.51 MHz    (68.7 %), step = 148 kHz      (498 m%)
    ac: freq = 1.674 MHz   (69.2 %), step = 164 kHz      (498 m%)
    ac: freq = 1.856 MHz   (69.7 %), step = 181.9 kHz    (498 m%)
    ac: freq = 2.058 MHz   (70.1 %), step = 201.6 kHz    (498 m%)
    ac: freq = 2.281 MHz   (70.6 %), step = 223.5 kHz    (498 m%)
    ac: freq = 2.529 MHz   (71.1 %), step = 247.8 kHz    (498 m%)
    ac: freq = 2.804 MHz   (71.6 %), step = 274.7 kHz    (498 m%)
    ac: freq = 3.108 MHz   (72.1 %), step = 304.5 kHz    (498 m%)
    ac: freq = 3.446 MHz   (72.6 %), step = 337.6 kHz    (498 m%)
    ac: freq = 3.82 MHz    (73.1 %), step = 374.2 kHz    (498 m%)
    ac: freq = 4.235 MHz   (73.6 %), step = 414.9 kHz    (498 m%)
    ac: freq = 4.695 MHz   (74.1 %), step = 459.9 kHz    (498 m%)
    ac: freq = 5.205 MHz   (74.6 %), step = 509.9 kHz    (498 m%)
    ac: freq = 5.77 MHz    (75.1 %), step = 565.3 kHz    (498 m%)
    ac: freq = 6.397 MHz   (75.6 %), step = 626.7 kHz    (498 m%)
    ac: freq = 7.092 MHz   (76.1 %), step = 694.7 kHz    (498 m%)
    ac: freq = 7.862 MHz   (76.6 %), step = 770.2 kHz    (498 m%)
    ac: freq = 8.716 MHz   (77.1 %), step = 853.8 kHz    (498 m%)
    ac: freq = 9.662 MHz   (77.6 %), step = 946.5 kHz    (498 m%)
    ac: freq = 10.71 MHz   (78.1 %), step = 1.049 MHz    (498 m%)
    ac: freq = 11.87 MHz   (78.6 %), step = 1.163 MHz    (498 m%)
    ac: freq = 13.16 MHz   (79.1 %), step = 1.29 MHz     (498 m%)
    ac: freq = 14.59 MHz   (79.6 %), step = 1.43 MHz     (498 m%)
    ac: freq = 16.18 MHz   (80.1 %), step = 1.585 MHz    (498 m%)
    ac: freq = 17.94 MHz   (80.6 %), step = 1.757 MHz    (498 m%)
    ac: freq = 19.88 MHz   (81.1 %), step = 1.948 MHz    (498 m%)
    ac: freq = 22.04 MHz   (81.6 %), step = 2.159 MHz    (498 m%)
    ac: freq = 24.44 MHz   (82.1 %), step = 2.394 MHz    (498 m%)
    ac: freq = 27.09 MHz   (82.6 %), step = 2.654 MHz    (498 m%)
    ac: freq = 30.03 MHz   (83.1 %), step = 2.942 MHz    (498 m%)
    ac: freq = 33.3 MHz    (83.6 %), step = 3.262 MHz    (498 m%)
    ac: freq = 36.91 MHz   (84.1 %), step = 3.616 MHz    (498 m%)
    ac: freq = 40.92 MHz   (84.6 %), step = 4.009 MHz    (498 m%)
    ac: freq = 45.36 MHz   (85.1 %), step = 4.444 MHz    (498 m%)
    ac: freq = 50.29 MHz   (85.6 %), step = 4.927 MHz    (498 m%)
    ac: freq = 55.75 MHz   (86.1 %), step = 5.462 MHz    (498 m%)
    ac: freq = 61.81 MHz   (86.6 %), step = 6.055 MHz    (498 m%)
    ac: freq = 68.52 MHz   (87.1 %), step = 6.713 MHz    (498 m%)
    ac: freq = 75.96 MHz   (87.6 %), step = 7.442 MHz    (498 m%)
    ac: freq = 84.21 MHz   (88.1 %), step = 8.25 MHz     (498 m%)
    ac: freq = 93.36 MHz   (88.6 %), step = 9.146 MHz    (498 m%)
    ac: freq = 103.5 MHz   (89.1 %), step = 10.14 MHz    (498 m%)
    ac: freq = 114.7 MHz   (89.6 %), step = 11.24 MHz    (498 m%)
    ac: freq = 127.2 MHz     (90 %), step = 12.46 MHz    (498 m%)
    ac: freq = 141 MHz     (90.5 %), step = 13.81 MHz    (498 m%)
    ac: freq = 156.3 MHz     (91 %), step = 15.31 MHz    (498 m%)
    ac: freq = 173.3 MHz   (91.5 %), step = 16.98 MHz    (498 m%)
    ac: freq = 192.1 MHz     (92 %), step = 18.82 MHz    (498 m%)
    ac: freq = 213 MHz     (92.5 %), step = 20.87 MHz    (498 m%)
    ac: freq = 236.1 MHz     (93 %), step = 23.13 MHz    (498 m%)
    ac: freq = 261.8 MHz   (93.5 %), step = 25.64 MHz    (498 m%)
    ac: freq = 290.2 MHz     (94 %), step = 28.43 MHz    (498 m%)
    ac: freq = 321.7 MHz   (94.5 %), step = 31.52 MHz    (498 m%)
    ac: freq = 356.6 MHz     (95 %), step = 34.94 MHz    (498 m%)
    ac: freq = 395.4 MHz   (95.5 %), step = 38.73 MHz    (498 m%)
    ac: freq = 438.3 MHz     (96 %), step = 42.94 MHz    (498 m%)
    ac: freq = 485.9 MHz   (96.5 %), step = 47.6 MHz     (498 m%)
    ac: freq = 538.7 MHz     (97 %), step = 52.77 MHz    (498 m%)
    ac: freq = 597.2 MHz   (97.5 %), step = 58.5 MHz     (498 m%)
    ac: freq = 662.1 MHz     (98 %), step = 64.86 MHz    (498 m%)
    ac: freq = 734 MHz     (98.5 %), step = 71.9 MHz     (498 m%)
    ac: freq = 813.7 MHz     (99 %), step = 79.71 MHz    (498 m%)
    ac: freq = 902 MHz     (99.5 %), step = 88.37 MHz    (498 m%)
    ac: freq = 1 GHz        (100 %), step = 97.96 MHz    (498 m%)
Accumulated DC solution time =            0 s.
Intrinsic ac analysis time =              0 s.
Total time required for ac analysis `ac': CPU = 10.66 ms, elapsed = 12.3041 ms.
Time accumulated: CPU = 275.316 ms, elapsed = 4.418 s.
Peak resident memory used = 127 Mbytes.

modelParameter: writing model parameter values to rawfile.

Opening the PSF file ../../../../../../../psf/modelParameter.info ...
element: writing instance parameter values to rawfile.

Opening the PSF file ../../../../../../../psf/element.info ...
outputParameter: writing output parameter values to rawfile.

Opening the PSF file ../../../../../../../psf/outputParameter.info ...
designParamVals: writing netlist parameters to rawfile.

Opening the PSFASCII file ../../../../../../../psf/designParamVals.info ...
primitives: writing primitives to rawfile.

Opening the PSFASCII file ../../../../../../../psf/primitives.info.primitives ...
subckts: writing subcircuits to rawfile.

Opening the PSFASCII file ../../../../../../../psf/subckts.info.subckts ...

Warning from spectre.
    WARNING (SPECTRE-17101): The value 'psf' specified for the 'checklimitdest' option will no longer be supported in future releases. Use 'spectre -h' to see other recommended values for the 'checklimitdest' option.


****************************************
AC Analysis `ac': freq = (1 Hz -> 1 GHz)
****************************************
DC simulation time: CPU = 342 us, elapsed = 343.8 us.

Opening the PSF file ../../../../../../../psf/ac.ac ...
    ac: freq = 1.856 Hz    (2.99 %), step = 181.9 mHz    (498 m%)
    ac: freq = 2.058 Hz    (3.48 %), step = 201.6 mHz    (498 m%)
    ac: freq = 2.281 Hz    (3.98 %), step = 223.5 mHz    (498 m%)
    ac: freq = 2.529 Hz    (4.48 %), step = 247.8 mHz    (498 m%)
    ac: freq = 2.804 Hz    (4.98 %), step = 274.7 mHz    (498 m%)
    ac: freq = 3.108 Hz    (5.47 %), step = 304.5 mHz    (498 m%)
    ac: freq = 3.446 Hz    (5.97 %), step = 337.6 mHz    (498 m%)
    ac: freq = 3.82 Hz     (6.47 %), step = 374.2 mHz    (498 m%)
    ac: freq = 4.235 Hz    (6.97 %), step = 414.9 mHz    (498 m%)
    ac: freq = 4.695 Hz    (7.46 %), step = 459.9 mHz    (498 m%)
    ac: freq = 5.205 Hz    (7.96 %), step = 509.9 mHz    (498 m%)
    ac: freq = 5.77 Hz     (8.46 %), step = 565.3 mHz    (498 m%)
    ac: freq = 6.397 Hz    (8.96 %), step = 626.7 mHz    (498 m%)
    ac: freq = 7.092 Hz    (9.45 %), step = 694.7 mHz    (498 m%)
    ac: freq = 7.862 Hz    (9.95 %), step = 770.2 mHz    (498 m%)
    ac: freq = 8.716 Hz    (10.4 %), step = 853.8 mHz    (498 m%)
    ac: freq = 9.662 Hz    (10.9 %), step = 946.5 mHz    (498 m%)
    ac: freq = 10.71 Hz    (11.4 %), step = 1.049 Hz     (498 m%)
    ac: freq = 11.87 Hz    (11.9 %), step = 1.163 Hz     (498 m%)
    ac: freq = 13.16 Hz    (12.4 %), step = 1.29 Hz      (498 m%)
    ac: freq = 14.59 Hz    (12.9 %), step = 1.43 Hz      (498 m%)
    ac: freq = 16.18 Hz    (13.4 %), step = 1.585 Hz     (498 m%)
    ac: freq = 17.94 Hz    (13.9 %), step = 1.757 Hz     (498 m%)
    ac: freq = 19.88 Hz    (14.4 %), step = 1.948 Hz     (498 m%)
    ac: freq = 22.04 Hz    (14.9 %), step = 2.159 Hz     (498 m%)
    ac: freq = 24.44 Hz    (15.4 %), step = 2.394 Hz     (498 m%)
    ac: freq = 27.09 Hz    (15.9 %), step = 2.654 Hz     (498 m%)
    ac: freq = 30.03 Hz    (16.4 %), step = 2.942 Hz     (498 m%)
    ac: freq = 33.3 Hz     (16.9 %), step = 3.262 Hz     (498 m%)
    ac: freq = 36.91 Hz    (17.4 %), step = 3.616 Hz     (498 m%)
    ac: freq = 40.92 Hz    (17.9 %), step = 4.009 Hz     (498 m%)
    ac: freq = 45.36 Hz    (18.4 %), step = 4.444 Hz     (498 m%)
    ac: freq = 50.29 Hz    (18.9 %), step = 4.927 Hz     (498 m%)
    ac: freq = 55.75 Hz    (19.4 %), step = 5.462 Hz     (498 m%)
    ac: freq = 61.81 Hz    (19.9 %), step = 6.055 Hz     (498 m%)
    ac: freq = 68.52 Hz    (20.4 %), step = 6.713 Hz     (498 m%)
    ac: freq = 75.96 Hz    (20.9 %), step = 7.442 Hz     (498 m%)
    ac: freq = 84.21 Hz    (21.4 %), step = 8.25 Hz      (498 m%)
    ac: freq = 93.36 Hz    (21.9 %), step = 9.146 Hz     (498 m%)
    ac: freq = 103.5 Hz    (22.4 %), step = 10.14 Hz     (498 m%)
    ac: freq = 114.7 Hz    (22.9 %), step = 11.24 Hz     (498 m%)
    ac: freq = 127.2 Hz    (23.4 %), step = 12.46 Hz     (498 m%)
    ac: freq = 141 Hz      (23.9 %), step = 13.81 Hz     (498 m%)
    ac: freq = 156.3 Hz    (24.4 %), step = 15.31 Hz     (498 m%)
    ac: freq = 173.3 Hz    (24.9 %), step = 16.98 Hz     (498 m%)
    ac: freq = 192.1 Hz    (25.4 %), step = 18.82 Hz     (498 m%)
    ac: freq = 213 Hz      (25.9 %), step = 20.87 Hz     (498 m%)
    ac: freq = 236.1 Hz    (26.4 %), step = 23.13 Hz     (498 m%)
    ac: freq = 261.8 Hz    (26.9 %), step = 25.64 Hz     (498 m%)
    ac: freq = 290.2 Hz    (27.4 %), step = 28.43 Hz     (498 m%)
    ac: freq = 321.7 Hz    (27.9 %), step = 31.52 Hz     (498 m%)
    ac: freq = 356.6 Hz    (28.4 %), step = 34.94 Hz     (498 m%)
    ac: freq = 395.4 Hz    (28.9 %), step = 38.73 Hz     (498 m%)
    ac: freq = 438.3 Hz    (29.4 %), step = 42.94 Hz     (498 m%)
    ac: freq = 485.9 Hz    (29.9 %), step = 47.6 Hz      (498 m%)
    ac: freq = 538.7 Hz    (30.3 %), step = 52.77 Hz     (498 m%)
    ac: freq = 597.2 Hz    (30.8 %), step = 58.5 Hz      (498 m%)
    ac: freq = 662.1 Hz    (31.3 %), step = 64.86 Hz     (498 m%)
    ac: freq = 734 Hz      (31.8 %), step = 71.9 Hz      (498 m%)
    ac: freq = 813.7 Hz    (32.3 %), step = 79.71 Hz     (498 m%)
    ac: freq = 902 Hz      (32.8 %), step = 88.37 Hz     (498 m%)
    ac: freq = 1 kHz       (33.3 %), step = 97.96 Hz     (498 m%)
    ac: freq = 1.109 kHz   (33.8 %), step = 108.6 Hz     (498 m%)
    ac: freq = 1.229 kHz   (34.3 %), step = 120.4 Hz     (498 m%)
    ac: freq = 1.362 kHz   (34.8 %), step = 133.5 Hz     (498 m%)
    ac: freq = 1.51 kHz    (35.3 %), step = 148 Hz       (498 m%)
    ac: freq = 1.674 kHz   (35.8 %), step = 164 Hz       (498 m%)
    ac: freq = 1.856 kHz   (36.3 %), step = 181.9 Hz     (498 m%)
    ac: freq = 2.058 kHz   (36.8 %), step = 201.6 Hz     (498 m%)
    ac: freq = 2.281 kHz   (37.3 %), step = 223.5 Hz     (498 m%)
    ac: freq = 2.529 kHz   (37.8 %), step = 247.8 Hz     (498 m%)
    ac: freq = 2.804 kHz   (38.3 %), step = 274.7 Hz     (498 m%)
    ac: freq = 3.108 kHz   (38.8 %), step = 304.5 Hz     (498 m%)
    ac: freq = 3.446 kHz   (39.3 %), step = 337.6 Hz     (498 m%)
    ac: freq = 3.82 kHz    (39.8 %), step = 374.2 Hz     (498 m%)
    ac: freq = 4.235 kHz   (40.3 %), step = 414.9 Hz     (498 m%)
    ac: freq = 4.695 kHz   (40.8 %), step = 459.9 Hz     (498 m%)
    ac: freq = 5.205 kHz   (41.3 %), step = 509.9 Hz     (498 m%)
    ac: freq = 5.77 kHz    (41.8 %), step = 565.3 Hz     (498 m%)
    ac: freq = 6.397 kHz   (42.3 %), step = 626.7 Hz     (498 m%)
    ac: freq = 7.092 kHz   (42.8 %), step = 694.7 Hz     (498 m%)
    ac: freq = 7.862 kHz   (43.3 %), step = 770.2 Hz     (498 m%)
    ac: freq = 8.716 kHz   (43.8 %), step = 853.8 Hz     (498 m%)
    ac: freq = 9.662 kHz   (44.3 %), step = 946.5 Hz     (498 m%)
    ac: freq = 10.71 kHz   (44.8 %), step = 1.049 kHz    (498 m%)
    ac: freq = 11.87 kHz   (45.3 %), step = 1.163 kHz    (498 m%)
    ac: freq = 13.16 kHz   (45.8 %), step = 1.29 kHz     (498 m%)
    ac: freq = 14.59 kHz   (46.3 %), step = 1.43 kHz     (498 m%)
    ac: freq = 16.18 kHz   (46.8 %), step = 1.585 kHz    (498 m%)
    ac: freq = 17.94 kHz   (47.3 %), step = 1.757 kHz    (498 m%)
    ac: freq = 19.88 kHz   (47.8 %), step = 1.948 kHz    (498 m%)
    ac: freq = 22.04 kHz   (48.3 %), step = 2.159 kHz    (498 m%)
    ac: freq = 24.44 kHz   (48.8 %), step = 2.394 kHz    (498 m%)
    ac: freq = 27.09 kHz   (49.3 %), step = 2.654 kHz    (498 m%)
    ac: freq = 30.03 kHz   (49.8 %), step = 2.942 kHz    (498 m%)
    ac: freq = 33.3 kHz    (50.2 %), step = 3.262 kHz    (498 m%)
    ac: freq = 36.91 kHz   (50.7 %), step = 3.616 kHz    (498 m%)
    ac: freq = 40.92 kHz   (51.2 %), step = 4.009 kHz    (498 m%)
    ac: freq = 45.36 kHz   (51.7 %), step = 4.444 kHz    (498 m%)
    ac: freq = 50.29 kHz   (52.2 %), step = 4.927 kHz    (498 m%)
    ac: freq = 55.75 kHz   (52.7 %), step = 5.462 kHz    (498 m%)
    ac: freq = 61.81 kHz   (53.2 %), step = 6.055 kHz    (498 m%)
    ac: freq = 68.52 kHz   (53.7 %), step = 6.713 kHz    (498 m%)
    ac: freq = 75.96 kHz   (54.2 %), step = 7.442 kHz    (498 m%)
    ac: freq = 84.21 kHz   (54.7 %), step = 8.25 kHz     (498 m%)
    ac: freq = 93.36 kHz   (55.2 %), step = 9.146 kHz    (498 m%)
    ac: freq = 103.5 kHz   (55.7 %), step = 10.14 kHz    (498 m%)
    ac: freq = 114.7 kHz   (56.2 %), step = 11.24 kHz    (498 m%)
    ac: freq = 127.2 kHz   (56.7 %), step = 12.46 kHz    (498 m%)
    ac: freq = 141 kHz     (57.2 %), step = 13.81 kHz    (498 m%)
    ac: freq = 156.3 kHz   (57.7 %), step = 15.31 kHz    (498 m%)
    ac: freq = 173.3 kHz   (58.2 %), step = 16.98 kHz    (498 m%)
    ac: freq = 192.1 kHz   (58.7 %), step = 18.82 kHz    (498 m%)
    ac: freq = 213 kHz     (59.2 %), step = 20.87 kHz    (498 m%)
    ac: freq = 236.1 kHz   (59.7 %), step = 23.13 kHz    (498 m%)
    ac: freq = 261.8 kHz   (60.2 %), step = 25.64 kHz    (498 m%)
    ac: freq = 290.2 kHz   (60.7 %), step = 28.43 kHz    (498 m%)
    ac: freq = 321.7 kHz   (61.2 %), step = 31.52 kHz    (498 m%)
    ac: freq = 356.6 kHz   (61.7 %), step = 34.94 kHz    (498 m%)
    ac: freq = 395.4 kHz   (62.2 %), step = 38.73 kHz    (498 m%)
    ac: freq = 438.3 kHz   (62.7 %), step = 42.94 kHz    (498 m%)
    ac: freq = 485.9 kHz   (63.2 %), step = 47.6 kHz     (498 m%)
    ac: freq = 538.7 kHz   (63.7 %), step = 52.77 kHz    (498 m%)
    ac: freq = 597.2 kHz   (64.2 %), step = 58.5 kHz     (498 m%)
    ac: freq = 662.1 kHz   (64.7 %), step = 64.86 kHz    (498 m%)
    ac: freq = 734 kHz     (65.2 %), step = 71.9 kHz     (498 m%)
    ac: freq = 813.7 kHz   (65.7 %), step = 79.71 kHz    (498 m%)
    ac: freq = 902 kHz     (66.2 %), step = 88.37 kHz    (498 m%)
    ac: freq = 1 MHz       (66.7 %), step = 97.96 kHz    (498 m%)
    ac: freq = 1.109 MHz   (67.2 %), step = 108.6 kHz    (498 m%)
    ac: freq = 1.229 MHz   (67.7 %), step = 120.4 kHz    (498 m%)
    ac: freq = 1.362 MHz   (68.2 %), step = 133.5 kHz    (498 m%)
    ac: freq = 1.51 MHz    (68.7 %), step = 148 kHz      (498 m%)
    ac: freq = 1.674 MHz   (69.2 %), step = 164 kHz      (498 m%)
    ac: freq = 1.856 MHz   (69.7 %), step = 181.9 kHz    (498 m%)
    ac: freq = 2.058 MHz   (70.1 %), step = 201.6 kHz    (498 m%)
    ac: freq = 2.281 MHz   (70.6 %), step = 223.5 kHz    (498 m%)
    ac: freq = 2.529 MHz   (71.1 %), step = 247.8 kHz    (498 m%)
    ac: freq = 2.804 MHz   (71.6 %), step = 274.7 kHz    (498 m%)
    ac: freq = 3.108 MHz   (72.1 %), step = 304.5 kHz    (498 m%)
    ac: freq = 3.446 MHz   (72.6 %), step = 337.6 kHz    (498 m%)
    ac: freq = 3.82 MHz    (73.1 %), step = 374.2 kHz    (498 m%)
    ac: freq = 4.235 MHz   (73.6 %), step = 414.9 kHz    (498 m%)
    ac: freq = 4.695 MHz   (74.1 %), step = 459.9 kHz    (498 m%)
    ac: freq = 5.205 MHz   (74.6 %), step = 509.9 kHz    (498 m%)
    ac: freq = 5.77 MHz    (75.1 %), step = 565.3 kHz    (498 m%)
    ac: freq = 6.397 MHz   (75.6 %), step = 626.7 kHz    (498 m%)
    ac: freq = 7.092 MHz   (76.1 %), step = 694.7 kHz    (498 m%)
    ac: freq = 7.862 MHz   (76.6 %), step = 770.2 kHz    (498 m%)
    ac: freq = 8.716 MHz   (77.1 %), step = 853.8 kHz    (498 m%)
    ac: freq = 9.662 MHz   (77.6 %), step = 946.5 kHz    (498 m%)
    ac: freq = 10.71 MHz   (78.1 %), step = 1.049 MHz    (498 m%)
    ac: freq = 11.87 MHz   (78.6 %), step = 1.163 MHz    (498 m%)
    ac: freq = 13.16 MHz   (79.1 %), step = 1.29 MHz     (498 m%)
    ac: freq = 14.59 MHz   (79.6 %), step = 1.43 MHz     (498 m%)
    ac: freq = 16.18 MHz   (80.1 %), step = 1.585 MHz    (498 m%)
    ac: freq = 17.94 MHz   (80.6 %), step = 1.757 MHz    (498 m%)
    ac: freq = 19.88 MHz   (81.1 %), step = 1.948 MHz    (498 m%)
    ac: freq = 22.04 MHz   (81.6 %), step = 2.159 MHz    (498 m%)
    ac: freq = 24.44 MHz   (82.1 %), step = 2.394 MHz    (498 m%)
    ac: freq = 27.09 MHz   (82.6 %), step = 2.654 MHz    (498 m%)
    ac: freq = 30.03 MHz   (83.1 %), step = 2.942 MHz    (498 m%)
    ac: freq = 33.3 MHz    (83.6 %), step = 3.262 MHz    (498 m%)
    ac: freq = 36.91 MHz   (84.1 %), step = 3.616 MHz    (498 m%)
    ac: freq = 40.92 MHz   (84.6 %), step = 4.009 MHz    (498 m%)
    ac: freq = 45.36 MHz   (85.1 %), step = 4.444 MHz    (498 m%)
    ac: freq = 50.29 MHz   (85.6 %), step = 4.927 MHz    (498 m%)
    ac: freq = 55.75 MHz   (86.1 %), step = 5.462 MHz    (498 m%)
    ac: freq = 61.81 MHz   (86.6 %), step = 6.055 MHz    (498 m%)
    ac: freq = 68.52 MHz   (87.1 %), step = 6.713 MHz    (498 m%)
    ac: freq = 75.96 MHz   (87.6 %), step = 7.442 MHz    (498 m%)
    ac: freq = 84.21 MHz   (88.1 %), step = 8.25 MHz     (498 m%)
    ac: freq = 93.36 MHz   (88.6 %), step = 9.146 MHz    (498 m%)
    ac: freq = 103.5 MHz   (89.1 %), step = 10.14 MHz    (498 m%)
    ac: freq = 114.7 MHz   (89.6 %), step = 11.24 MHz    (498 m%)
    ac: freq = 127.2 MHz     (90 %), step = 12.46 MHz    (498 m%)
    ac: freq = 141 MHz     (90.5 %), step = 13.81 MHz    (498 m%)
    ac: freq = 156.3 MHz     (91 %), step = 15.31 MHz    (498 m%)
    ac: freq = 173.3 MHz   (91.5 %), step = 16.98 MHz    (498 m%)
    ac: freq = 192.1 MHz     (92 %), step = 18.82 MHz    (498 m%)
    ac: freq = 213 MHz     (92.5 %), step = 20.87 MHz    (498 m%)
    ac: freq = 236.1 MHz     (93 %), step = 23.13 MHz    (498 m%)
    ac: freq = 261.8 MHz   (93.5 %), step = 25.64 MHz    (498 m%)
    ac: freq = 290.2 MHz     (94 %), step = 28.43 MHz    (498 m%)
    ac: freq = 321.7 MHz   (94.5 %), step = 31.52 MHz    (498 m%)
    ac: freq = 356.6 MHz     (95 %), step = 34.94 MHz    (498 m%)
    ac: freq = 395.4 MHz   (95.5 %), step = 38.73 MHz    (498 m%)
    ac: freq = 438.3 MHz     (96 %), step = 42.94 MHz    (498 m%)
    ac: freq = 485.9 MHz   (96.5 %), step = 47.6 MHz     (498 m%)
    ac: freq = 538.7 MHz     (97 %), step = 52.77 MHz    (498 m%)
    ac: freq = 597.2 MHz   (97.5 %), step = 58.5 MHz     (498 m%)
    ac: freq = 662.1 MHz     (98 %), step = 64.86 MHz    (498 m%)
    ac: freq = 734 MHz     (98.5 %), step = 71.9 MHz     (498 m%)
    ac: freq = 813.7 MHz     (99 %), step = 79.71 MHz    (498 m%)
    ac: freq = 902 MHz     (99.5 %), step = 88.37 MHz    (498 m%)
    ac: freq = 1 GHz        (100 %), step = 97.96 MHz    (498 m%)
Accumulated DC solution time =            0 s.
Intrinsic ac analysis time =              0 s.
Total time required for ac analysis `ac': CPU = 9.17 ms, elapsed = 10.8058 ms.
Time accumulated: CPU = 300.862 ms, elapsed = 5.73938 s.
Peak resident memory used = 127 Mbytes.

modelParameter: writing model parameter values to rawfile.

Opening the PSF file ../../../../../../../psf/modelParameter.info ...
element: writing instance parameter values to rawfile.

Opening the PSF file ../../../../../../../psf/element.info ...
outputParameter: writing output parameter values to rawfile.

Opening the PSF file ../../../../../../../psf/outputParameter.info ...
designParamVals: writing netlist parameters to rawfile.

Opening the PSFASCII file ../../../../../../../psf/designParamVals.info ...
primitives: writing primitives to rawfile.

Opening the PSFASCII file ../../../../../../../psf/primitives.info.primitives ...
subckts: writing subcircuits to rawfile.

Opening the PSFASCII file ../../../../../../../psf/subckts.info.subckts ...

Warning from spectre.
    WARNING (SPECTRE-17101): The value 'psf' specified for the 'checklimitdest' option will no longer be supported in future releases. Use 'spectre -h' to see other recommended values for the 'checklimitdest' option.


****************************************
AC Analysis `ac': freq = (1 Hz -> 1 GHz)
****************************************
DC simulation time: CPU = 368 us, elapsed = 373.84 us.

Opening the PSF file ../../../../../../../psf/ac.ac ...
    ac: freq = 1.856 Hz    (2.99 %), step = 181.9 mHz    (498 m%)
    ac: freq = 2.058 Hz    (3.48 %), step = 201.6 mHz    (498 m%)
    ac: freq = 2.281 Hz    (3.98 %), step = 223.5 mHz    (498 m%)
    ac: freq = 2.529 Hz    (4.48 %), step = 247.8 mHz    (498 m%)
    ac: freq = 2.804 Hz    (4.98 %), step = 274.7 mHz    (498 m%)
    ac: freq = 3.108 Hz    (5.47 %), step = 304.5 mHz    (498 m%)
    ac: freq = 3.446 Hz    (5.97 %), step = 337.6 mHz    (498 m%)
    ac: freq = 3.82 Hz     (6.47 %), step = 374.2 mHz    (498 m%)
    ac: freq = 4.235 Hz    (6.97 %), step = 414.9 mHz    (498 m%)
    ac: freq = 4.695 Hz    (7.46 %), step = 459.9 mHz    (498 m%)
    ac: freq = 5.205 Hz    (7.96 %), step = 509.9 mHz    (498 m%)
    ac: freq = 5.77 Hz     (8.46 %), step = 565.3 mHz    (498 m%)
    ac: freq = 6.397 Hz    (8.96 %), step = 626.7 mHz    (498 m%)
    ac: freq = 7.092 Hz    (9.45 %), step = 694.7 mHz    (498 m%)
    ac: freq = 7.862 Hz    (9.95 %), step = 770.2 mHz    (498 m%)
    ac: freq = 8.716 Hz    (10.4 %), step = 853.8 mHz    (498 m%)
    ac: freq = 9.662 Hz    (10.9 %), step = 946.5 mHz    (498 m%)
    ac: freq = 10.71 Hz    (11.4 %), step = 1.049 Hz     (498 m%)
    ac: freq = 11.87 Hz    (11.9 %), step = 1.163 Hz     (498 m%)
    ac: freq = 13.16 Hz    (12.4 %), step = 1.29 Hz      (498 m%)
    ac: freq = 14.59 Hz    (12.9 %), step = 1.43 Hz      (498 m%)
    ac: freq = 16.18 Hz    (13.4 %), step = 1.585 Hz     (498 m%)
    ac: freq = 17.94 Hz    (13.9 %), step = 1.757 Hz     (498 m%)
    ac: freq = 19.88 Hz    (14.4 %), step = 1.948 Hz     (498 m%)
    ac: freq = 22.04 Hz    (14.9 %), step = 2.159 Hz     (498 m%)
    ac: freq = 24.44 Hz    (15.4 %), step = 2.394 Hz     (498 m%)
    ac: freq = 27.09 Hz    (15.9 %), step = 2.654 Hz     (498 m%)
    ac: freq = 30.03 Hz    (16.4 %), step = 2.942 Hz     (498 m%)
    ac: freq = 33.3 Hz     (16.9 %), step = 3.262 Hz     (498 m%)
    ac: freq = 36.91 Hz    (17.4 %), step = 3.616 Hz     (498 m%)
    ac: freq = 40.92 Hz    (17.9 %), step = 4.009 Hz     (498 m%)
    ac: freq = 45.36 Hz    (18.4 %), step = 4.444 Hz     (498 m%)
    ac: freq = 50.29 Hz    (18.9 %), step = 4.927 Hz     (498 m%)
    ac: freq = 55.75 Hz    (19.4 %), step = 5.462 Hz     (498 m%)
    ac: freq = 61.81 Hz    (19.9 %), step = 6.055 Hz     (498 m%)
    ac: freq = 68.52 Hz    (20.4 %), step = 6.713 Hz     (498 m%)
    ac: freq = 75.96 Hz    (20.9 %), step = 7.442 Hz     (498 m%)
    ac: freq = 84.21 Hz    (21.4 %), step = 8.25 Hz      (498 m%)
    ac: freq = 93.36 Hz    (21.9 %), step = 9.146 Hz     (498 m%)
    ac: freq = 103.5 Hz    (22.4 %), step = 10.14 Hz     (498 m%)
    ac: freq = 114.7 Hz    (22.9 %), step = 11.24 Hz     (498 m%)
    ac: freq = 127.2 Hz    (23.4 %), step = 12.46 Hz     (498 m%)
    ac: freq = 141 Hz      (23.9 %), step = 13.81 Hz     (498 m%)
    ac: freq = 156.3 Hz    (24.4 %), step = 15.31 Hz     (498 m%)
    ac: freq = 173.3 Hz    (24.9 %), step = 16.98 Hz     (498 m%)
    ac: freq = 192.1 Hz    (25.4 %), step = 18.82 Hz     (498 m%)
    ac: freq = 213 Hz      (25.9 %), step = 20.87 Hz     (498 m%)
    ac: freq = 236.1 Hz    (26.4 %), step = 23.13 Hz     (498 m%)
    ac: freq = 261.8 Hz    (26.9 %), step = 25.64 Hz     (498 m%)
    ac: freq = 290.2 Hz    (27.4 %), step = 28.43 Hz     (498 m%)
    ac: freq = 321.7 Hz    (27.9 %), step = 31.52 Hz     (498 m%)
    ac: freq = 356.6 Hz    (28.4 %), step = 34.94 Hz     (498 m%)
    ac: freq = 395.4 Hz    (28.9 %), step = 38.73 Hz     (498 m%)
    ac: freq = 438.3 Hz    (29.4 %), step = 42.94 Hz     (498 m%)
    ac: freq = 485.9 Hz    (29.9 %), step = 47.6 Hz      (498 m%)
    ac: freq = 538.7 Hz    (30.3 %), step = 52.77 Hz     (498 m%)
    ac: freq = 597.2 Hz    (30.8 %), step = 58.5 Hz      (498 m%)
    ac: freq = 662.1 Hz    (31.3 %), step = 64.86 Hz     (498 m%)
    ac: freq = 734 Hz      (31.8 %), step = 71.9 Hz      (498 m%)
    ac: freq = 813.7 Hz    (32.3 %), step = 79.71 Hz     (498 m%)
    ac: freq = 902 Hz      (32.8 %), step = 88.37 Hz     (498 m%)
    ac: freq = 1 kHz       (33.3 %), step = 97.96 Hz     (498 m%)
    ac: freq = 1.109 kHz   (33.8 %), step = 108.6 Hz     (498 m%)
    ac: freq = 1.229 kHz   (34.3 %), step = 120.4 Hz     (498 m%)
    ac: freq = 1.362 kHz   (34.8 %), step = 133.5 Hz     (498 m%)
    ac: freq = 1.51 kHz    (35.3 %), step = 148 Hz       (498 m%)
    ac: freq = 1.674 kHz   (35.8 %), step = 164 Hz       (498 m%)
    ac: freq = 1.856 kHz   (36.3 %), step = 181.9 Hz     (498 m%)
    ac: freq = 2.058 kHz   (36.8 %), step = 201.6 Hz     (498 m%)
    ac: freq = 2.281 kHz   (37.3 %), step = 223.5 Hz     (498 m%)
    ac: freq = 2.529 kHz   (37.8 %), step = 247.8 Hz     (498 m%)
    ac: freq = 2.804 kHz   (38.3 %), step = 274.7 Hz     (498 m%)
    ac: freq = 3.108 kHz   (38.8 %), step = 304.5 Hz     (498 m%)
    ac: freq = 3.446 kHz   (39.3 %), step = 337.6 Hz     (498 m%)
    ac: freq = 3.82 kHz    (39.8 %), step = 374.2 Hz     (498 m%)
    ac: freq = 4.235 kHz   (40.3 %), step = 414.9 Hz     (498 m%)
    ac: freq = 4.695 kHz   (40.8 %), step = 459.9 Hz     (498 m%)
    ac: freq = 5.205 kHz   (41.3 %), step = 509.9 Hz     (498 m%)
    ac: freq = 5.77 kHz    (41.8 %), step = 565.3 Hz     (498 m%)
    ac: freq = 6.397 kHz   (42.3 %), step = 626.7 Hz     (498 m%)
    ac: freq = 7.092 kHz   (42.8 %), step = 694.7 Hz     (498 m%)
    ac: freq = 7.862 kHz   (43.3 %), step = 770.2 Hz     (498 m%)
    ac: freq = 8.716 kHz   (43.8 %), step = 853.8 Hz     (498 m%)
    ac: freq = 9.662 kHz   (44.3 %), step = 946.5 Hz     (498 m%)
    ac: freq = 10.71 kHz   (44.8 %), step = 1.049 kHz    (498 m%)
    ac: freq = 11.87 kHz   (45.3 %), step = 1.163 kHz    (498 m%)
    ac: freq = 13.16 kHz   (45.8 %), step = 1.29 kHz     (498 m%)
    ac: freq = 14.59 kHz   (46.3 %), step = 1.43 kHz     (498 m%)
    ac: freq = 16.18 kHz   (46.8 %), step = 1.585 kHz    (498 m%)
    ac: freq = 17.94 kHz   (47.3 %), step = 1.757 kHz    (498 m%)
    ac: freq = 19.88 kHz   (47.8 %), step = 1.948 kHz    (498 m%)
    ac: freq = 22.04 kHz   (48.3 %), step = 2.159 kHz    (498 m%)
    ac: freq = 24.44 kHz   (48.8 %), step = 2.394 kHz    (498 m%)
    ac: freq = 27.09 kHz   (49.3 %), step = 2.654 kHz    (498 m%)
    ac: freq = 30.03 kHz   (49.8 %), step = 2.942 kHz    (498 m%)
    ac: freq = 33.3 kHz    (50.2 %), step = 3.262 kHz    (498 m%)
    ac: freq = 36.91 kHz   (50.7 %), step = 3.616 kHz    (498 m%)
    ac: freq = 40.92 kHz   (51.2 %), step = 4.009 kHz    (498 m%)
    ac: freq = 45.36 kHz   (51.7 %), step = 4.444 kHz    (498 m%)
    ac: freq = 50.29 kHz   (52.2 %), step = 4.927 kHz    (498 m%)
    ac: freq = 55.75 kHz   (52.7 %), step = 5.462 kHz    (498 m%)
    ac: freq = 61.81 kHz   (53.2 %), step = 6.055 kHz    (498 m%)
    ac: freq = 68.52 kHz   (53.7 %), step = 6.713 kHz    (498 m%)
    ac: freq = 75.96 kHz   (54.2 %), step = 7.442 kHz    (498 m%)
    ac: freq = 84.21 kHz   (54.7 %), step = 8.25 kHz     (498 m%)
    ac: freq = 93.36 kHz   (55.2 %), step = 9.146 kHz    (498 m%)
    ac: freq = 103.5 kHz   (55.7 %), step = 10.14 kHz    (498 m%)
    ac: freq = 114.7 kHz   (56.2 %), step = 11.24 kHz    (498 m%)
    ac: freq = 127.2 kHz   (56.7 %), step = 12.46 kHz    (498 m%)
    ac: freq = 141 kHz     (57.2 %), step = 13.81 kHz    (498 m%)
    ac: freq = 156.3 kHz   (57.7 %), step = 15.31 kHz    (498 m%)
    ac: freq = 173.3 kHz   (58.2 %), step = 16.98 kHz    (498 m%)
    ac: freq = 192.1 kHz   (58.7 %), step = 18.82 kHz    (498 m%)
    ac: freq = 213 kHz     (59.2 %), step = 20.87 kHz    (498 m%)
    ac: freq = 236.1 kHz   (59.7 %), step = 23.13 kHz    (498 m%)
    ac: freq = 261.8 kHz   (60.2 %), step = 25.64 kHz    (498 m%)
    ac: freq = 290.2 kHz   (60.7 %), step = 28.43 kHz    (498 m%)
    ac: freq = 321.7 kHz   (61.2 %), step = 31.52 kHz    (498 m%)
    ac: freq = 356.6 kHz   (61.7 %), step = 34.94 kHz    (498 m%)
    ac: freq = 395.4 kHz   (62.2 %), step = 38.73 kHz    (498 m%)
    ac: freq = 438.3 kHz   (62.7 %), step = 42.94 kHz    (498 m%)
    ac: freq = 485.9 kHz   (63.2 %), step = 47.6 kHz     (498 m%)
    ac: freq = 538.7 kHz   (63.7 %), step = 52.77 kHz    (498 m%)
    ac: freq = 597.2 kHz   (64.2 %), step = 58.5 kHz     (498 m%)
    ac: freq = 662.1 kHz   (64.7 %), step = 64.86 kHz    (498 m%)
    ac: freq = 734 kHz     (65.2 %), step = 71.9 kHz     (498 m%)
    ac: freq = 813.7 kHz   (65.7 %), step = 79.71 kHz    (498 m%)
    ac: freq = 902 kHz     (66.2 %), step = 88.37 kHz    (498 m%)
    ac: freq = 1 MHz       (66.7 %), step = 97.96 kHz    (498 m%)
    ac: freq = 1.109 MHz   (67.2 %), step = 108.6 kHz    (498 m%)
    ac: freq = 1.229 MHz   (67.7 %), step = 120.4 kHz    (498 m%)
    ac: freq = 1.362 MHz   (68.2 %), step = 133.5 kHz    (498 m%)
    ac: freq = 1.51 MHz    (68.7 %), step = 148 kHz      (498 m%)
    ac: freq = 1.674 MHz   (69.2 %), step = 164 kHz      (498 m%)
    ac: freq = 1.856 MHz   (69.7 %), step = 181.9 kHz    (498 m%)
    ac: freq = 2.058 MHz   (70.1 %), step = 201.6 kHz    (498 m%)
    ac: freq = 2.281 MHz   (70.6 %), step = 223.5 kHz    (498 m%)
    ac: freq = 2.529 MHz   (71.1 %), step = 247.8 kHz    (498 m%)
    ac: freq = 2.804 MHz   (71.6 %), step = 274.7 kHz    (498 m%)
    ac: freq = 3.108 MHz   (72.1 %), step = 304.5 kHz    (498 m%)
    ac: freq = 3.446 MHz   (72.6 %), step = 337.6 kHz    (498 m%)
    ac: freq = 3.82 MHz    (73.1 %), step = 374.2 kHz    (498 m%)
    ac: freq = 4.235 MHz   (73.6 %), step = 414.9 kHz    (498 m%)
    ac: freq = 4.695 MHz   (74.1 %), step = 459.9 kHz    (498 m%)
    ac: freq = 5.205 MHz   (74.6 %), step = 509.9 kHz    (498 m%)
    ac: freq = 5.77 MHz    (75.1 %), step = 565.3 kHz    (498 m%)
    ac: freq = 6.397 MHz   (75.6 %), step = 626.7 kHz    (498 m%)
    ac: freq = 7.092 MHz   (76.1 %), step = 694.7 kHz    (498 m%)
    ac: freq = 7.862 MHz   (76.6 %), step = 770.2 kHz    (498 m%)
    ac: freq = 8.716 MHz   (77.1 %), step = 853.8 kHz    (498 m%)
    ac: freq = 9.662 MHz   (77.6 %), step = 946.5 kHz    (498 m%)
    ac: freq = 10.71 MHz   (78.1 %), step = 1.049 MHz    (498 m%)
    ac: freq = 11.87 MHz   (78.6 %), step = 1.163 MHz    (498 m%)
    ac: freq = 13.16 MHz   (79.1 %), step = 1.29 MHz     (498 m%)
    ac: freq = 14.59 MHz   (79.6 %), step = 1.43 MHz     (498 m%)
    ac: freq = 16.18 MHz   (80.1 %), step = 1.585 MHz    (498 m%)
    ac: freq = 17.94 MHz   (80.6 %), step = 1.757 MHz    (498 m%)
    ac: freq = 19.88 MHz   (81.1 %), step = 1.948 MHz    (498 m%)
    ac: freq = 22.04 MHz   (81.6 %), step = 2.159 MHz    (498 m%)
    ac: freq = 24.44 MHz   (82.1 %), step = 2.394 MHz    (498 m%)
    ac: freq = 27.09 MHz   (82.6 %), step = 2.654 MHz    (498 m%)
    ac: freq = 30.03 MHz   (83.1 %), step = 2.942 MHz    (498 m%)
    ac: freq = 33.3 MHz    (83.6 %), step = 3.262 MHz    (498 m%)
    ac: freq = 36.91 MHz   (84.1 %), step = 3.616 MHz    (498 m%)
    ac: freq = 40.92 MHz   (84.6 %), step = 4.009 MHz    (498 m%)
    ac: freq = 45.36 MHz   (85.1 %), step = 4.444 MHz    (498 m%)
    ac: freq = 50.29 MHz   (85.6 %), step = 4.927 MHz    (498 m%)
    ac: freq = 55.75 MHz   (86.1 %), step = 5.462 MHz    (498 m%)
    ac: freq = 61.81 MHz   (86.6 %), step = 6.055 MHz    (498 m%)
    ac: freq = 68.52 MHz   (87.1 %), step = 6.713 MHz    (498 m%)
    ac: freq = 75.96 MHz   (87.6 %), step = 7.442 MHz    (498 m%)
    ac: freq = 84.21 MHz   (88.1 %), step = 8.25 MHz     (498 m%)
    ac: freq = 93.36 MHz   (88.6 %), step = 9.146 MHz    (498 m%)
    ac: freq = 103.5 MHz   (89.1 %), step = 10.14 MHz    (498 m%)
    ac: freq = 114.7 MHz   (89.6 %), step = 11.24 MHz    (498 m%)
    ac: freq = 127.2 MHz     (90 %), step = 12.46 MHz    (498 m%)
    ac: freq = 141 MHz     (90.5 %), step = 13.81 MHz    (498 m%)
    ac: freq = 156.3 MHz     (91 %), step = 15.31 MHz    (498 m%)
    ac: freq = 173.3 MHz   (91.5 %), step = 16.98 MHz    (498 m%)
    ac: freq = 192.1 MHz     (92 %), step = 18.82 MHz    (498 m%)
    ac: freq = 213 MHz     (92.5 %), step = 20.87 MHz    (498 m%)
    ac: freq = 236.1 MHz     (93 %), step = 23.13 MHz    (498 m%)
    ac: freq = 261.8 MHz   (93.5 %), step = 25.64 MHz    (498 m%)
    ac: freq = 290.2 MHz     (94 %), step = 28.43 MHz    (498 m%)
    ac: freq = 321.7 MHz   (94.5 %), step = 31.52 MHz    (498 m%)
    ac: freq = 356.6 MHz     (95 %), step = 34.94 MHz    (498 m%)
    ac: freq = 395.4 MHz   (95.5 %), step = 38.73 MHz    (498 m%)
    ac: freq = 438.3 MHz     (96 %), step = 42.94 MHz    (498 m%)
    ac: freq = 485.9 MHz   (96.5 %), step = 47.6 MHz     (498 m%)
    ac: freq = 538.7 MHz     (97 %), step = 52.77 MHz    (498 m%)
    ac: freq = 597.2 MHz   (97.5 %), step = 58.5 MHz     (498 m%)
    ac: freq = 662.1 MHz     (98 %), step = 64.86 MHz    (498 m%)
    ac: freq = 734 MHz     (98.5 %), step = 71.9 MHz     (498 m%)
    ac: freq = 813.7 MHz     (99 %), step = 79.71 MHz    (498 m%)
    ac: freq = 902 MHz     (99.5 %), step = 88.37 MHz    (498 m%)
    ac: freq = 1 GHz        (100 %), step = 97.96 MHz    (498 m%)
Accumulated DC solution time =            0 s.
Intrinsic ac analysis time =              0 s.
Total time required for ac analysis `ac': CPU = 10.176 ms, elapsed = 14.95 ms.
Time accumulated: CPU = 325.566 ms, elapsed = 7.02883 s.
Peak resident memory used = 127 Mbytes.

modelParameter: writing model parameter values to rawfile.

Opening the PSF file ../../../../../../../psf/modelParameter.info ...
element: writing instance parameter values to rawfile.

Opening the PSF file ../../../../../../../psf/element.info ...
outputParameter: writing output parameter values to rawfile.

Opening the PSF file ../../../../../../../psf/outputParameter.info ...
designParamVals: writing netlist parameters to rawfile.

Opening the PSFASCII file ../../../../../../../psf/designParamVals.info ...
primitives: writing primitives to rawfile.

Opening the PSFASCII file ../../../../../../../psf/primitives.info.primitives ...
subckts: writing subcircuits to rawfile.

Opening the PSFASCII file ../../../../../../../psf/subckts.info.subckts ...

Warning from spectre.
    WARNING (SPECTRE-17101): The value 'psf' specified for the 'checklimitdest' option will no longer be supported in future releases. Use 'spectre -h' to see other recommended values for the 'checklimitdest' option.


****************************************
AC Analysis `ac': freq = (1 Hz -> 1 GHz)
****************************************
DC simulation time: CPU = 324 us, elapsed = 324.011 us.

Opening the PSF file ../../../../../../../psf/ac.ac ...
    ac: freq = 1.856 Hz    (2.99 %), step = 181.9 mHz    (498 m%)
    ac: freq = 2.058 Hz    (3.48 %), step = 201.6 mHz    (498 m%)
    ac: freq = 2.281 Hz    (3.98 %), step = 223.5 mHz    (498 m%)
    ac: freq = 2.529 Hz    (4.48 %), step = 247.8 mHz    (498 m%)
    ac: freq = 2.804 Hz    (4.98 %), step = 274.7 mHz    (498 m%)
    ac: freq = 3.108 Hz    (5.47 %), step = 304.5 mHz    (498 m%)
    ac: freq = 3.446 Hz    (5.97 %), step = 337.6 mHz    (498 m%)
    ac: freq = 3.82 Hz     (6.47 %), step = 374.2 mHz    (498 m%)
    ac: freq = 4.235 Hz    (6.97 %), step = 414.9 mHz    (498 m%)
    ac: freq = 4.695 Hz    (7.46 %), step = 459.9 mHz    (498 m%)
    ac: freq = 5.205 Hz    (7.96 %), step = 509.9 mHz    (498 m%)
    ac: freq = 5.77 Hz     (8.46 %), step = 565.3 mHz    (498 m%)
    ac: freq = 6.397 Hz    (8.96 %), step = 626.7 mHz    (498 m%)
    ac: freq = 7.092 Hz    (9.45 %), step = 694.7 mHz    (498 m%)
    ac: freq = 7.862 Hz    (9.95 %), step = 770.2 mHz    (498 m%)
    ac: freq = 8.716 Hz    (10.4 %), step = 853.8 mHz    (498 m%)
    ac: freq = 9.662 Hz    (10.9 %), step = 946.5 mHz    (498 m%)
    ac: freq = 10.71 Hz    (11.4 %), step = 1.049 Hz     (498 m%)
    ac: freq = 11.87 Hz    (11.9 %), step = 1.163 Hz     (498 m%)
    ac: freq = 13.16 Hz    (12.4 %), step = 1.29 Hz      (498 m%)
    ac: freq = 14.59 Hz    (12.9 %), step = 1.43 Hz      (498 m%)
    ac: freq = 16.18 Hz    (13.4 %), step = 1.585 Hz     (498 m%)
    ac: freq = 17.94 Hz    (13.9 %), step = 1.757 Hz     (498 m%)
    ac: freq = 19.88 Hz    (14.4 %), step = 1.948 Hz     (498 m%)
    ac: freq = 22.04 Hz    (14.9 %), step = 2.159 Hz     (498 m%)
    ac: freq = 24.44 Hz    (15.4 %), step = 2.394 Hz     (498 m%)
    ac: freq = 27.09 Hz    (15.9 %), step = 2.654 Hz     (498 m%)
    ac: freq = 30.03 Hz    (16.4 %), step = 2.942 Hz     (498 m%)
    ac: freq = 33.3 Hz     (16.9 %), step = 3.262 Hz     (498 m%)
    ac: freq = 36.91 Hz    (17.4 %), step = 3.616 Hz     (498 m%)
    ac: freq = 40.92 Hz    (17.9 %), step = 4.009 Hz     (498 m%)
    ac: freq = 45.36 Hz    (18.4 %), step = 4.444 Hz     (498 m%)
    ac: freq = 50.29 Hz    (18.9 %), step = 4.927 Hz     (498 m%)
    ac: freq = 55.75 Hz    (19.4 %), step = 5.462 Hz     (498 m%)
    ac: freq = 61.81 Hz    (19.9 %), step = 6.055 Hz     (498 m%)
    ac: freq = 68.52 Hz    (20.4 %), step = 6.713 Hz     (498 m%)
    ac: freq = 75.96 Hz    (20.9 %), step = 7.442 Hz     (498 m%)
    ac: freq = 84.21 Hz    (21.4 %), step = 8.25 Hz      (498 m%)
    ac: freq = 93.36 Hz    (21.9 %), step = 9.146 Hz     (498 m%)
[...]
    ac: freq = 8.716 MHz   (77.1 %), step = 853.8 kHz    (498 m%)
    ac: freq = 9.662 MHz   (77.6 %), step = 946.5 kHz    (498 m%)
    ac: freq = 10.71 MHz   (78.1 %), step = 1.049 MHz    (498 m%)
    ac: freq = 11.87 MHz   (78.6 %), step = 1.163 MHz    (498 m%)
    ac: freq = 13.16 MHz   (79.1 %), step = 1.29 MHz     (498 m%)
    ac: freq = 14.59 MHz   (79.6 %), step = 1.43 MHz     (498 m%)
    ac: freq = 16.18 MHz   (80.1 %), step = 1.585 MHz    (498 m%)
    ac: freq = 17.94 MHz   (80.6 %), step = 1.757 MHz    (498 m%)
    ac: freq = 19.88 MHz   (81.1 %), step = 1.948 MHz    (498 m%)
    ac: freq = 22.04 MHz   (81.6 %), step = 2.159 MHz    (498 m%)
    ac: freq = 24.44 MHz   (82.1 %), step = 2.394 MHz    (498 m%)
    ac: freq = 27.09 MHz   (82.6 %), step = 2.654 MHz    (498 m%)
    ac: freq = 30.03 MHz   (83.1 %), step = 2.942 MHz    (498 m%)
    ac: freq = 33.3 MHz    (83.6 %), step = 3.262 MHz    (498 m%)
    ac: freq = 36.91 MHz   (84.1 %), step = 3.616 MHz    (498 m%)
    ac: freq = 40.92 MHz   (84.6 %), step = 4.009 MHz    (498 m%)
    ac: freq = 45.36 MHz   (85.1 %), step = 4.444 MHz    (498 m%)
    ac: freq = 50.29 MHz   (85.6 %), step = 4.927 MHz    (498 m%)
    ac: freq = 55.75 MHz   (86.1 %), step = 5.462 MHz    (498 m%)
    ac: freq = 61.81 MHz   (86.6 %), step = 6.055 MHz    (498 m%)
    ac: freq = 68.52 MHz   (87.1 %), step = 6.713 MHz    (498 m%)
    ac: freq = 75.96 MHz   (87.6 %), step = 7.442 MHz    (498 m%)
    ac: freq = 84.21 MHz   (88.1 %), step = 8.25 MHz     (498 m%)
    ac: freq = 93.36 MHz   (88.6 %), step = 9.146 MHz    (498 m%)
    ac: freq = 103.5 MHz   (89.1 %), step = 10.14 MHz    (498 m%)
    ac: freq = 114.7 MHz   (89.6 %), step = 11.24 MHz    (498 m%)
    ac: freq = 127.2 MHz     (90 %), step = 12.46 MHz    (498 m%)
    ac: freq = 141 MHz     (90.5 %), step = 13.81 MHz    (498 m%)
    ac: freq = 156.3 MHz     (91 %), step = 15.31 MHz    (498 m%)
    ac: freq = 173.3 MHz   (91.5 %), step = 16.98 MHz    (498 m%)
    ac: freq = 192.1 MHz     (92 %), step = 18.82 MHz    (498 m%)
    ac: freq = 213 MHz     (92.5 %), step = 20.87 MHz    (498 m%)
    ac: freq = 236.1 MHz     (93 %), step = 23.13 MHz    (498 m%)
    ac: freq = 261.8 MHz   (93.5 %), step = 25.64 MHz    (498 m%)
    ac: freq = 290.2 MHz     (94 %), step = 28.43 MHz    (498 m%)
    ac: freq = 321.7 MHz   (94.5 %), step = 31.52 MHz    (498 m%)
    ac: freq = 356.6 MHz     (95 %), step = 34.94 MHz    (498 m%)
    ac: freq = 395.4 MHz   (95.5 %), step = 38.73 MHz    (498 m%)
    ac: freq = 438.3 MHz     (96 %), step = 42.94 MHz    (498 m%)
    ac: freq = 485.9 MHz   (96.5 %), step = 47.6 MHz     (498 m%)
    ac: freq = 538.7 MHz     (97 %), step = 52.77 MHz    (498 m%)
    ac: freq = 597.2 MHz   (97.5 %), step = 58.5 MHz     (498 m%)
    ac: freq = 662.1 MHz     (98 %), step = 64.86 MHz    (498 m%)
    ac: freq = 734 MHz     (98.5 %), step = 71.9 MHz     (498 m%)
    ac: freq = 813.7 MHz     (99 %), step = 79.71 MHz    (498 m%)
    ac: freq = 902 MHz     (99.5 %), step = 88.37 MHz    (498 m%)
    ac: freq = 1 GHz        (100 %), step = 97.96 MHz    (498 m%)
Accumulated DC solution time =            0 s.
Intrinsic ac analysis time =              0 s.
Total time required for ac analysis `ac': CPU = 10.076 ms, elapsed = 14.173 ms.
Time accumulated: CPU = 667.712 ms, elapsed = 25.6339 s.
Peak resident memory used = 127 Mbytes.

modelParameter: writing model parameter values to rawfile.

Opening the PSF file ../../../../../../../psf/modelParameter.info ...
element: writing instance parameter values to rawfile.

Opening the PSF file ../../../../../../../psf/element.info ...
outputParameter: writing output parameter values to rawfile.

Opening the PSF file ../../../../../../../psf/outputParameter.info ...
designParamVals: writing netlist parameters to rawfile.

Opening the PSFASCII file ../../../../../../../psf/designParamVals.info ...
primitives: writing primitives to rawfile.

Opening the PSFASCII file ../../../../../../../psf/primitives.info.primitives ...
subckts: writing subcircuits to rawfile.

Opening the PSFASCII file ../../../../../../../psf/subckts.info.subckts ...

Warning from spectre.
    WARNING (SPECTRE-17101): The value 'psf' specified for the 'checklimitdest' option will no longer be supported in future releases. Use 'spectre -h' to see other recommended values for the 'checklimitdest' option.


****************************************
AC Analysis `ac': freq = (1 Hz -> 1 GHz)
****************************************
DC simulation time: CPU = 460 us, elapsed = 467.062 us.

Opening the PSF file ../../../../../../../psf/ac.ac ...
    ac: freq = 1.856 Hz    (2.99 %), step = 181.9 mHz    (498 m%)
    ac: freq = 2.058 Hz    (3.48 %), step = 201.6 mHz    (498 m%)
    ac: freq = 2.281 Hz    (3.98 %), step = 223.5 mHz    (498 m%)
    ac: freq = 2.529 Hz    (4.48 %), step = 247.8 mHz    (498 m%)
    ac: freq = 2.804 Hz    (4.98 %), step = 274.7 mHz    (498 m%)
    ac: freq = 3.108 Hz    (5.47 %), step = 304.5 mHz    (498 m%)
    ac: freq = 3.446 Hz    (5.97 %), step = 337.6 mHz    (498 m%)
    ac: freq = 3.82 Hz     (6.47 %), step = 374.2 mHz    (498 m%)
    ac: freq = 4.235 Hz    (6.97 %), step = 414.9 mHz    (498 m%)
    ac: freq = 4.695 Hz    (7.46 %), step = 459.9 mHz    (498 m%)
    ac: freq = 5.205 Hz    (7.96 %), step = 509.9 mHz    (498 m%)
    ac: freq = 5.77 Hz     (8.46 %), step = 565.3 mHz    (498 m%)
    ac: freq = 6.397 Hz    (8.96 %), step = 626.7 mHz    (498 m%)
    ac: freq = 7.092 Hz    (9.45 %), step = 694.7 mHz    (498 m%)
    ac: freq = 7.862 Hz    (9.95 %), step = 770.2 mHz    (498 m%)
    ac: freq = 8.716 Hz    (10.4 %), step = 853.8 mHz    (498 m%)
    ac: freq = 9.662 Hz    (10.9 %), step = 946.5 mHz    (498 m%)
    ac: freq = 10.71 Hz    (11.4 %), step = 1.049 Hz     (498 m%)
    ac: freq = 11.87 Hz    (11.9 %), step = 1.163 Hz     (498 m%)
    ac: freq = 13.16 Hz    (12.4 %), step = 1.29 Hz      (498 m%)
    ac: freq = 14.59 Hz    (12.9 %), step = 1.43 Hz      (498 m%)
    ac: freq = 16.18 Hz    (13.4 %), step = 1.585 Hz     (498 m%)
    ac: freq = 17.94 Hz    (13.9 %), step = 1.757 Hz     (498 m%)
    ac: freq = 19.88 Hz    (14.4 %), step = 1.948 Hz     (498 m%)
    ac: freq = 22.04 Hz    (14.9 %), step = 2.159 Hz     (498 m%)
    ac: freq = 24.44 Hz    (15.4 %), step = 2.394 Hz     (498 m%)
    ac: freq = 27.09 Hz    (15.9 %), step = 2.654 Hz     (498 m%)
    ac: freq = 30.03 Hz    (16.4 %), step = 2.942 Hz     (498 m%)
    ac: freq = 33.3 Hz     (16.9 %), step = 3.262 Hz     (498 m%)
    ac: freq = 36.91 Hz    (17.4 %), step = 3.616 Hz     (498 m%)
    ac: freq = 40.92 Hz    (17.9 %), step = 4.009 Hz     (498 m%)
    ac: freq = 45.36 Hz    (18.4 %), step = 4.444 Hz     (498 m%)
    ac: freq = 50.29 Hz    (18.9 %), step = 4.927 Hz     (498 m%)
    ac: freq = 55.75 Hz    (19.4 %), step = 5.462 Hz     (498 m%)
    ac: freq = 61.81 Hz    (19.9 %), step = 6.055 Hz     (498 m%)
    ac: freq = 68.52 Hz    (20.4 %), step = 6.713 Hz     (498 m%)
    ac: freq = 75.96 Hz    (20.9 %), step = 7.442 Hz     (498 m%)
    ac: freq = 84.21 Hz    (21.4 %), step = 8.25 Hz      (498 m%)
    ac: freq = 93.36 Hz    (21.9 %), step = 9.146 Hz     (498 m%)
    ac: freq = 103.5 Hz    (22.4 %), step = 10.14 Hz     (498 m%)
    ac: freq = 114.7 Hz    (22.9 %), step = 11.24 Hz     (498 m%)
    ac: freq = 127.2 Hz    (23.4 %), step = 12.46 Hz     (498 m%)
    ac: freq = 141 Hz      (23.9 %), step = 13.81 Hz     (498 m%)
    ac: freq = 156.3 Hz    (24.4 %), step = 15.31 Hz     (498 m%)
    ac: freq = 173.3 Hz    (24.9 %), step = 16.98 Hz     (498 m%)
    ac: freq = 192.1 Hz    (25.4 %), step = 18.82 Hz     (498 m%)
    ac: freq = 213 Hz      (25.9 %), step = 20.87 Hz     (498 m%)
    ac: freq = 236.1 Hz    (26.4 %), step = 23.13 Hz     (498 m%)
    ac: freq = 261.8 Hz    (26.9 %), step = 25.64 Hz     (498 m%)
    ac: freq = 290.2 Hz    (27.4 %), step = 28.43 Hz     (498 m%)
    ac: freq = 321.7 Hz    (27.9 %), step = 31.52 Hz     (498 m%)
    ac: freq = 356.6 Hz    (28.4 %), step = 34.94 Hz     (498 m%)
    ac: freq = 395.4 Hz    (28.9 %), step = 38.73 Hz     (498 m%)
    ac: freq = 438.3 Hz    (29.4 %), step = 42.94 Hz     (498 m%)
    ac: freq = 485.9 Hz    (29.9 %), step = 47.6 Hz      (498 m%)
    ac: freq = 538.7 Hz    (30.3 %), step = 52.77 Hz     (498 m%)
    ac: freq = 597.2 Hz    (30.8 %), step = 58.5 Hz      (498 m%)
    ac: freq = 662.1 Hz    (31.3 %), step = 64.86 Hz     (498 m%)
    ac: freq = 734 Hz      (31.8 %), step = 71.9 Hz      (498 m%)
    ac: freq = 813.7 Hz    (32.3 %), step = 79.71 Hz     (498 m%)
    ac: freq = 902 Hz      (32.8 %), step = 88.37 Hz     (498 m%)
    ac: freq = 1 kHz       (33.3 %), step = 97.96 Hz     (498 m%)
    ac: freq = 1.109 kHz   (33.8 %), step = 108.6 Hz     (498 m%)
    ac: freq = 1.229 kHz   (34.3 %), step = 120.4 Hz     (498 m%)
    ac: freq = 1.362 kHz   (34.8 %), step = 133.5 Hz     (498 m%)
    ac: freq = 1.51 kHz    (35.3 %), step = 148 Hz       (498 m%)
    ac: freq = 1.674 kHz   (35.8 %), step = 164 Hz       (498 m%)
    ac: freq = 1.856 kHz   (36.3 %), step = 181.9 Hz     (498 m%)
    ac: freq = 2.058 kHz   (36.8 %), step = 201.6 Hz     (498 m%)
    ac: freq = 2.281 kHz   (37.3 %), step = 223.5 Hz     (498 m%)
    ac: freq = 2.529 kHz   (37.8 %), step = 247.8 Hz     (498 m%)
    ac: freq = 2.804 kHz   (38.3 %), step = 274.7 Hz     (498 m%)
    ac: freq = 3.108 kHz   (38.8 %), step = 304.5 Hz     (498 m%)
    ac: freq = 3.446 kHz   (39.3 %), step = 337.6 Hz     (498 m%)
    ac: freq = 3.82 kHz    (39.8 %), step = 374.2 Hz     (498 m%)
    ac: freq = 4.235 kHz   (40.3 %), step = 414.9 Hz     (498 m%)
    ac: freq = 4.695 kHz   (40.8 %), step = 459.9 Hz     (498 m%)
    ac: freq = 5.205 kHz   (41.3 %), step = 509.9 Hz     (498 m%)
    ac: freq = 5.77 kHz    (41.8 %), step = 565.3 Hz     (498 m%)
    ac: freq = 6.397 kHz   (42.3 %), step = 626.7 Hz     (498 m%)
    ac: freq = 7.092 kHz   (42.8 %), step = 694.7 Hz     (498 m%)
    ac: freq = 7.862 kHz   (43.3 %), step = 770.2 Hz     (498 m%)
    ac: freq = 8.716 kHz   (43.8 %), step = 853.8 Hz     (498 m%)
    ac: freq = 9.662 kHz   (44.3 %), step = 946.5 Hz     (498 m%)
    ac: freq = 10.71 kHz   (44.8 %), step = 1.049 kHz    (498 m%)
    ac: freq = 11.87 kHz   (45.3 %), step = 1.163 kHz    (498 m%)
    ac: freq = 13.16 kHz   (45.8 %), step = 1.29 kHz     (498 m%)
    ac: freq = 14.59 kHz   (46.3 %), step = 1.43 kHz     (498 m%)
    ac: freq = 16.18 kHz   (46.8 %), step = 1.585 kHz    (498 m%)
    ac: freq = 17.94 kHz   (47.3 %), step = 1.757 kHz    (498 m%)
    ac: freq = 19.88 kHz   (47.8 %), step = 1.948 kHz    (498 m%)
    ac: freq = 22.04 kHz   (48.3 %), step = 2.159 kHz    (498 m%)
    ac: freq = 24.44 kHz   (48.8 %), step = 2.394 kHz    (498 m%)
    ac: freq = 27.09 kHz   (49.3 %), step = 2.654 kHz    (498 m%)
    ac: freq = 30.03 kHz   (49.8 %), step = 2.942 kHz    (498 m%)
    ac: freq = 33.3 kHz    (50.2 %), step = 3.262 kHz    (498 m%)
    ac: freq = 36.91 kHz   (50.7 %), step = 3.616 kHz    (498 m%)
    ac: freq = 40.92 kHz   (51.2 %), step = 4.009 kHz    (498 m%)
    ac: freq = 45.36 kHz   (51.7 %), step = 4.444 kHz    (498 m%)
    ac: freq = 50.29 kHz   (52.2 %), step = 4.927 kHz    (498 m%)
    ac: freq = 55.75 kHz   (52.7 %), step = 5.462 kHz    (498 m%)
    ac: freq = 61.81 kHz   (53.2 %), step = 6.055 kHz    (498 m%)
    ac: freq = 68.52 kHz   (53.7 %), step = 6.713 kHz    (498 m%)
    ac: freq = 75.96 kHz   (54.2 %), step = 7.442 kHz    (498 m%)
    ac: freq = 84.21 kHz   (54.7 %), step = 8.25 kHz     (498 m%)
    ac: freq = 93.36 kHz   (55.2 %), step = 9.146 kHz    (498 m%)
    ac: freq = 103.5 kHz   (55.7 %), step = 10.14 kHz    (498 m%)
    ac: freq = 114.7 kHz   (56.2 %), step = 11.24 kHz    (498 m%)
    ac: freq = 127.2 kHz   (56.7 %), step = 12.46 kHz    (498 m%)
    ac: freq = 141 kHz     (57.2 %), step = 13.81 kHz    (498 m%)
    ac: freq = 156.3 kHz   (57.7 %), step = 15.31 kHz    (498 m%)
    ac: freq = 173.3 kHz   (58.2 %), step = 16.98 kHz    (498 m%)
    ac: freq = 192.1 kHz   (58.7 %), step = 18.82 kHz    (498 m%)
    ac: freq = 213 kHz     (59.2 %), step = 20.87 kHz    (498 m%)
    ac: freq = 236.1 kHz   (59.7 %), step = 23.13 kHz    (498 m%)
    ac: freq = 261.8 kHz   (60.2 %), step = 25.64 kHz    (498 m%)
    ac: freq = 290.2 kHz   (60.7 %), step = 28.43 kHz    (498 m%)
    ac: freq = 321.7 kHz   (61.2 %), step = 31.52 kHz    (498 m%)
    ac: freq = 356.6 kHz   (61.7 %), step = 34.94 kHz    (498 m%)
    ac: freq = 395.4 kHz   (62.2 %), step = 38.73 kHz    (498 m%)
    ac: freq = 438.3 kHz   (62.7 %), step = 42.94 kHz    (498 m%)
    ac: freq = 485.9 kHz   (63.2 %), step = 47.6 kHz     (498 m%)
    ac: freq = 538.7 kHz   (63.7 %), step = 52.77 kHz    (498 m%)
    ac: freq = 597.2 kHz   (64.2 %), step = 58.5 kHz     (498 m%)
    ac: freq = 662.1 kHz   (64.7 %), step = 64.86 kHz    (498 m%)
    ac: freq = 734 kHz     (65.2 %), step = 71.9 kHz     (498 m%)
    ac: freq = 813.7 kHz   (65.7 %), step = 79.71 kHz    (498 m%)
    ac: freq = 902 kHz     (66.2 %), step = 88.37 kHz    (498 m%)
    ac: freq = 1 MHz       (66.7 %), step = 97.96 kHz    (498 m%)
    ac: freq = 1.109 MHz   (67.2 %), step = 108.6 kHz    (498 m%)
    ac: freq = 1.229 MHz   (67.7 %), step = 120.4 kHz    (498 m%)
    ac: freq = 1.362 MHz   (68.2 %), step = 133.5 kHz    (498 m%)
    ac: freq = 1.51 MHz    (68.7 %), step = 148 kHz      (498 m%)
    ac: freq = 1.674 MHz   (69.2 %), step = 164 kHz      (498 m%)
    ac: freq = 1.856 MHz   (69.7 %), step = 181.9 kHz    (498 m%)
    ac: freq = 2.058 MHz   (70.1 %), step = 201.6 kHz    (498 m%)
    ac: freq = 2.281 MHz   (70.6 %), step = 223.5 kHz    (498 m%)
    ac: freq = 2.529 MHz   (71.1 %), step = 247.8 kHz    (498 m%)
    ac: freq = 2.804 MHz   (71.6 %), step = 274.7 kHz    (498 m%)
    ac: freq = 3.108 MHz   (72.1 %), step = 304.5 kHz    (498 m%)
    ac: freq = 3.446 MHz   (72.6 %), step = 337.6 kHz    (498 m%)
    ac: freq = 3.82 MHz    (73.1 %), step = 374.2 kHz    (498 m%)
    ac: freq = 4.235 MHz   (73.6 %), step = 414.9 kHz    (498 m%)
    ac: freq = 4.695 MHz   (74.1 %), step = 459.9 kHz    (498 m%)
    ac: freq = 5.205 MHz   (74.6 %), step = 509.9 kHz    (498 m%)
    ac: freq = 5.77 MHz    (75.1 %), step = 565.3 kHz    (498 m%)
    ac: freq = 6.397 MHz   (75.6 %), step = 626.7 kHz    (498 m%)
    ac: freq = 7.092 MHz   (76.1 %), step = 694.7 kHz    (498 m%)
    ac: freq = 7.862 MHz   (76.6 %), step = 770.2 kHz    (498 m%)
    ac: freq = 8.716 MHz   (77.1 %), step = 853.8 kHz    (498 m%)
    ac: freq = 9.662 MHz   (77.6 %), step = 946.5 kHz    (498 m%)
    ac: freq = 10.71 MHz   (78.1 %), step = 1.049 MHz    (498 m%)
    ac: freq = 11.87 MHz   (78.6 %), step = 1.163 MHz    (498 m%)
    ac: freq = 13.16 MHz   (79.1 %), step = 1.29 MHz     (498 m%)
    ac: freq = 14.59 MHz   (79.6 %), step = 1.43 MHz     (498 m%)
    ac: freq = 16.18 MHz   (80.1 %), step = 1.585 MHz    (498 m%)
    ac: freq = 17.94 MHz   (80.6 %), step = 1.757 MHz    (498 m%)
    ac: freq = 19.88 MHz   (81.1 %), step = 1.948 MHz    (498 m%)
    ac: freq = 22.04 MHz   (81.6 %), step = 2.159 MHz    (498 m%)
    ac: freq = 24.44 MHz   (82.1 %), step = 2.394 MHz    (498 m%)
    ac: freq = 27.09 MHz   (82.6 %), step = 2.654 MHz    (498 m%)
    ac: freq = 30.03 MHz   (83.1 %), step = 2.942 MHz    (498 m%)
    ac: freq = 33.3 MHz    (83.6 %), step = 3.262 MHz    (498 m%)
    ac: freq = 36.91 MHz   (84.1 %), step = 3.616 MHz    (498 m%)
    ac: freq = 40.92 MHz   (84.6 %), step = 4.009 MHz    (498 m%)
    ac: freq = 45.36 MHz   (85.1 %), step = 4.444 MHz    (498 m%)
    ac: freq = 50.29 MHz   (85.6 %), step = 4.927 MHz    (498 m%)
    ac: freq = 55.75 MHz   (86.1 %), step = 5.462 MHz    (498 m%)
    ac: freq = 61.81 MHz   (86.6 %), step = 6.055 MHz    (498 m%)
    ac: freq = 68.52 MHz   (87.1 %), step = 6.713 MHz    (498 m%)
    ac: freq = 75.96 MHz   (87.6 %), step = 7.442 MHz    (498 m%)
    ac: freq = 84.21 MHz   (88.1 %), step = 8.25 MHz     (498 m%)
    ac: freq = 93.36 MHz   (88.6 %), step = 9.146 MHz    (498 m%)
    ac: freq = 103.5 MHz   (89.1 %), step = 10.14 MHz    (498 m%)
    ac: freq = 114.7 MHz   (89.6 %), step = 11.24 MHz    (498 m%)
    ac: freq = 127.2 MHz     (90 %), step = 12.46 MHz    (498 m%)
    ac: freq = 141 MHz     (90.5 %), step = 13.81 MHz    (498 m%)
    ac: freq = 156.3 MHz     (91 %), step = 15.31 MHz    (498 m%)
    ac: freq = 173.3 MHz   (91.5 %), step = 16.98 MHz    (498 m%)
    ac: freq = 192.1 MHz     (92 %), step = 18.82 MHz    (498 m%)
    ac: freq = 213 MHz     (92.5 %), step = 20.87 MHz    (498 m%)
    ac: freq = 236.1 MHz     (93 %), step = 23.13 MHz    (498 m%)
    ac: freq = 261.8 MHz   (93.5 %), step = 25.64 MHz    (498 m%)
    ac: freq = 290.2 MHz     (94 %), step = 28.43 MHz    (498 m%)
    ac: freq = 321.7 MHz   (94.5 %), step = 31.52 MHz    (498 m%)
    ac: freq = 356.6 MHz     (95 %), step = 34.94 MHz    (498 m%)
    ac: freq = 395.4 MHz   (95.5 %), step = 38.73 MHz    (498 m%)
    ac: freq = 438.3 MHz     (96 %), step = 42.94 MHz    (498 m%)
    ac: freq = 485.9 MHz   (96.5 %), step = 47.6 MHz     (498 m%)
    ac: freq = 538.7 MHz     (97 %), step = 52.77 MHz    (498 m%)
    ac: freq = 597.2 MHz   (97.5 %), step = 58.5 MHz     (498 m%)
    ac: freq = 662.1 MHz     (98 %), step = 64.86 MHz    (498 m%)
    ac: freq = 734 MHz     (98.5 %), step = 71.9 MHz     (498 m%)
    ac: freq = 813.7 MHz     (99 %), step = 79.71 MHz    (498 m%)
    ac: freq = 902 MHz     (99.5 %), step = 88.37 MHz    (498 m%)
    ac: freq = 1 GHz        (100 %), step = 97.96 MHz    (498 m%)
Accumulated DC solution time =            0 s.
Intrinsic ac analysis time =              0 s.
Total time required for ac analysis `ac': CPU = 9.779 ms, elapsed = 15.77 ms.
Time accumulated: CPU = 692.495 ms, elapsed = 26.9536 s.
Peak resident memory used = 127 Mbytes.

modelParameter: writing model parameter values to rawfile.

Opening the PSF file ../../../../../../../psf/modelParameter.info ...
element: writing instance parameter values to rawfile.

Opening the PSF file ../../../../../../../psf/element.info ...
outputParameter: writing output parameter values to rawfile.

Opening the PSF file ../../../../../../../psf/outputParameter.info ...
designParamVals: writing netlist parameters to rawfile.

Opening the PSFASCII file ../../../../../../../psf/designParamVals.info ...
primitives: writing primitives to rawfile.

Opening the PSFASCII file ../../../../../../../psf/primitives.info.primitives ...
subckts: writing subcircuits to rawfile.

Opening the PSFASCII file ../../../../../../../psf/subckts.info.subckts ...

Spectre received SIGTERM sent from PID: 527402 with UID: 1276483.
Process hierarchy of PID 527402 :
    PID        COMMAND
    527402     /software/cadence-2021-09/ICADVM201/tools/bin/64bit/cdsServIpc -c 59115 -n 13 -r 0 -x cd /home/tianles3/cadence/simulation/ece483_sp25_AG/tb_mp3/maestro/results/maestro/ExplorerRun.0/1/ece483_sp25_AG_tb_mp3_1/netlist_tianles3 ; ./runSimulation 
    523783     /software/cadence-2021-09/ICADVM201/tools.lnx86/dfII/bin/64bit/virtuoso -replay /home/tianles3/cadence/simulation/ece483_sp25_AG/tb_mp3/autograde.tcl 
    523349     bash /home/tianles3/Downloads/LLM3/run_autograder.sh mp3 
    521358     python3 test_eval.py 
    519547     bash 
    519541     /usr/libexec/gnome-terminal-server 
Licensing Information:
Lic Summary:
[11:55:54.419760] Cdslmd servers:5280@cadence.webstore.illinois.edu
[11:55:54.419809] Feature usage summary:
[11:55:54.419819] Virtuoso_Multi_mode_Simulation


Error found by spectre.
    ERROR (SPECTRE-25): 


Aggregate audit (11:55:54 AM, Sun Apr 27, 2025):
Time used: CPU = 707 ms, elapsed = 40.2 s, util. = 1.76%.
Time spent in licensing: elapsed = 321 ms.
Peak memory used = 128 Mbytes.
Simulation started at: 11:55:14 AM, Sun Apr 27, 2025, ended at: 11:55:54 AM, Sun Apr 27, 2025, with elapsed time (wall clock): 40.2 s.
spectre completes with 1 error, 20 warnings, and 5 notices.
spectre terminated prematurely due to fatal error.
