
Spectre (R) Circuit Simulator
Version 21.1.0.058 64bit -- 18 Aug 2021
Copyright (C) 1989-2021 Cadence Design Systems, Inc. All rights reserved worldwide. Cadence and Spectre are registered trademarks of Cadence Design Systems, Inc. All others are the property of their respective holders.

Includes RSA BSAFE(R) Cryptographic or Security Protocol Software from RSA Security, Inc.

User: tianles3   Host: fastx3-04.ews.illinois.edu   HostID: 16AC5CE6   PID: 170887
Memory  available: 18.7163 GB  physical: 24.9488 GB
Linux   : Red Hat Enterprise Linux release 8.10 (Ootpa)
CPU Type: Intel(R) Xeon(R) Silver 4216 CPU @ 2.10GHz
All processors running at 2095.1 MHz
        Socket: Processors
        0:       0
        2:       1
        4:       2
        6:       3
        8:       4
        10:      5
        12:      6
        14:      7
        16:      8
        18:      9
        
System load averages (1min, 5min, 15min) : 19.8 %, 14.4 %, 8.4 %
HPC is enabled
This is a virtual machine


Simulating `input.scs' on fastx3-04.ews.illinois.edu at 3:22:49 PM, Fri Apr 25, 2025 (process id: 170887).
Current working directory: /home/tianles3/cadence/simulation/ece483_sp25_AG/tb_mp4/maestro/results/maestro/ExplorerRun.0/1/ece483_sp25_AG_tb_mp4_1/netlist_tianles3
Command line:
    /software/cadence-2021-09/SPECTRE211/tools.lnx86/bin/spectre -64  \
        input.scs +escchars +log ../../../../../../../psf/spectre.out  \
        +inter=mpsc +mpssession=spectre0_168704_1 -format psfxl -raw  \
        ../../../../../../../psf +aps +lqtimeout 900 -maxw 5 -maxn 5  \
        -env ade
spectre pid = 170887

Licensing Information:
[15:22:50.355705] Configured Lic search path (20.02-p002): 5280@cadence.webstore.illinois.edu

Licensing Information:
[15:22:50.436176] Periodic Lic check successful

Loading /software/cadence-2021-09/SPECTRE211/tools.lnx86/cmi/lib/64bit/5.0/libinfineon_sh.so ...
Loading /software/cadence-2021-09/SPECTRE211/tools.lnx86/cmi/lib/64bit/5.0/libphilips_o_sh.so ...
Loading /software/cadence-2021-09/SPECTRE211/tools.lnx86/cmi/lib/64bit/5.0/libphilips_sh.so ...
Loading /software/cadence-2021-09/SPECTRE211/tools.lnx86/cmi/lib/64bit/5.0/libsparam_sh.so ...
Loading /software/cadence-2021-09/SPECTRE211/tools.lnx86/cmi/lib/64bit/5.0/libstmodels_sh.so ...
Reading file:  /home/tianles3/cadence/simulation/ece483_sp25_AG/tb_mp4/maestro/results/maestro/ExplorerRun.0/1/ece483_sp25_AG_tb_mp4_1/netlist_tianles3/input.scs
Reading file:  /software/cadence-2021-09/SPECTRE211/tools.lnx86/spectre/etc/configs/spectre.cfg
Reading file:  /class/ece483/models/models_ece483
Time for NDB Parsing: CPU = 106.5 ms, elapsed = 824.233 ms.
Time accumulated: CPU = 323.902 ms, elapsed = 824.239 ms.
Peak resident memory used = 108 Mbytes.

Time for Elaboration: CPU = 22.152 ms, elapsed = 26.9649 ms.
Time accumulated: CPU = 346.241 ms, elapsed = 851.388 ms.
Peak resident memory used = 117 Mbytes.


Warning from spectre during hierarchy flattening.
    WARNING (SPECTRE-17101): The value 'psf' specified for the 'checklimitdest' option will no longer be supported in future releases. Use 'spectre -h' to see other recommended values for the 'checklimitdest' option.


Time for EDB Visiting: CPU = 711 us, elapsed = 719.07 us.
Time accumulated: CPU = 347.145 ms, elapsed = 852.298 ms.
Peak resident memory used = 117 Mbytes.


Notice from spectre during topology check.
    Only one connection to node `0'.
    No DC path from node `ibn10u' to ground, Gmin installed to provide path.
Notice from spectre during initial setup.
    Multithreading is disabled due to the size of the design being too small.


Global user options:
         psfversion = 1.4.0
            vabstol = 1e-06
            iabstol = 1e-12
               temp = 27
               gmin = 1e-12
             rforce = 1
           maxnotes = 5
           maxwarns = 5
             digits = 5
               cols = 80
             pivrel = 0.001
           sensfile = ../../../../../../../psf/sens.output
     checklimitdest = psf
               save = allpub
             reltol = 0.001
               tnom = 27
             scalem = 1
              scale = 1

Scoped user options:

Circuit inventory:
              nodes 6
             iprobe 1     
            bsim3v3 6     
          capacitor 1     
            isource 1     
            vsource 4     

Analysis and control statement inventory:
                 dc 1     
               info 7     
                stb 1     

Output statements:
             .probe 0     
           .measure 0     
               save 1     


Notice from spectre during initial setup.
    APS enabled.

Time for parsing: CPU = 3.041 ms, elapsed = 10.299 ms.
Time accumulated: CPU = 350.316 ms, elapsed = 862.727 ms.
Peak resident memory used = 120 Mbytes.

~~~~~~~~~~~~~~~~~~~~~~
Pre-Simulation Summary
~~~~~~~~~~~~~~~~~~~~~~
~~~~~~~~~~~~~~~~~~~~~~
Entering remote command mode using MPSC service (spectre, ipi, v0.0, spectre0_168704_1, ).

Notice from spectre during DC analysis, during STB analysis `stb'.
    GminDC = 1 pS is large enough to noticeably affect the DC solution.
        dV(ibn10u) = 10 MV
        Use the `gmin_check' option to eliminate or expand this report.
Warning from spectre during DC analysis, during STB analysis `stb'.
    WARNING (CMI-2375): __ECE483_SP23_FC.M6: Vgs has exceeded the oxide breakdown voltage of `vbox' = 12.3 V.
    WARNING (CMI-2377): __ECE483_SP23_FC.M6: Vgd has exceeded the oxide breakdown voltage of `vbox' = 12.3 V.
    WARNING (CMI-2375): __ECE483_SP23_FC.M5: Vgs has exceeded the oxide breakdown voltage of `vbox' = 12.3 V.
    WARNING (CMI-2377): __ECE483_SP23_FC.M5: Vgd has exceeded the oxide breakdown voltage of `vbox' = 12.3 V.
    WARNING (CMI-2375): __ECE483_SP23_FC.M4: Vgs has exceeded the oxide breakdown voltage of `vbox' = 12.3 V.
    WARNING (CMI-2377): __ECE483_SP23_FC.M4: Vgd has exceeded the oxide breakdown voltage of `vbox' = 12.3 V.

Maximum value of each quantity, excluding Verilog-A modules and dangling current sources:
V: V(ibn10u) = 10 MV
I: I(V0:p) = 10 uA
DC simulation time: CPU = 947 us, elapsed = 954.866 us.

Notice from spectre at freq = 2 GHz during STB analysis `stb'.
    Gain(dB)is always less than zero. The loop is always stable. No gain margin or phase margin.


Opening the PSF file ../../../../../../../psf/dcOp.dc ...

Notice from spectre during DC analysis `dcOp'.
    GminDC = 1 pS is large enough to noticeably affect the DC solution.
        dV(ibn10u) = 10 MV
        Use the `gmin_check' option to eliminate or expand this report.
Warning from spectre during DC analysis `dcOp'.
    WARNING (CMI-2375): __ECE483_SP23_FC.M6: Vgs has exceeded the oxide breakdown voltage of `vbox' = 12.3 V.
    WARNING (CMI-2377): __ECE483_SP23_FC.M6: Vgd has exceeded the oxide breakdown voltage of `vbox' = 12.3 V.
    WARNING (CMI-2375): __ECE483_SP23_FC.M5: Vgs has exceeded the oxide breakdown voltage of `vbox' = 12.3 V.
    WARNING (CMI-2377): __ECE483_SP23_FC.M5: Vgd has exceeded the oxide breakdown voltage of `vbox' = 12.3 V.
    WARNING (CMI-2375): __ECE483_SP23_FC.M4: Vgs has exceeded the oxide breakdown voltage of `vbox' = 12.3 V.
    WARNING (CMI-2377): __ECE483_SP23_FC.M4: Vgd has exceeded the oxide breakdown voltage of `vbox' = 12.3 V.

Maximum value of each quantity, excluding Verilog-A modules and dangling current sources:
V: V(ibn10u) = 10 MV
I: I(V0:p) = 10 uA
DC simulation time: CPU = 2.578 ms, elapsed = 16.552 ms.
dcOpInfo: writing operating point information to rawfile.

Opening the PSF file ../../../../../../../psf/dcOpInfo.info ...
modelParameter: writing model parameter values to rawfile.

Opening the PSF file ../../../../../../../psf/modelParameter.info ...
element: writing instance parameter values to rawfile.

Opening the PSF file ../../../../../../../psf/element.info ...
outputParameter: writing output parameter values to rawfile.

Opening the PSF file ../../../../../../../psf/outputParameter.info ...
designParamVals: writing netlist parameters to rawfile.

Opening the PSFASCII file ../../../../../../../psf/designParamVals.info ...
primitives: writing primitives to rawfile.

Opening the PSFASCII file ../../../../../../../psf/primitives.info.primitives ...
subckts: writing subcircuits to rawfile.

Opening the PSFASCII file ../../../../../../../psf/subckts.info.subckts ...

Warning from spectre.
    WARNING (SPECTRE-17101): The value 'psf' specified for the 'checklimitdest' option will no longer be supported in future releases. Use 'spectre -h' to see other recommended values for the 'checklimitdest' option.
Notice from spectre during DC analysis, during STB analysis `stb'.
    GminDC = 1 pS is large enough to noticeably affect the DC solution.
        dV(ibn10u) = 10 MV
        Use the `gmin_check' option to eliminate or expand this report.
Warning from spectre during DC analysis, during STB analysis `stb'.
    WARNING (CMI-2375): __ECE483_SP23_FC.M6: Vgs has exceeded the oxide breakdown voltage of `vbox' = 12.3 V.
    WARNING (CMI-2377): __ECE483_SP23_FC.M6: Vgd has exceeded the oxide breakdown voltage of `vbox' = 12.3 V.
    WARNING (CMI-2375): __ECE483_SP23_FC.M5: Vgs has exceeded the oxide breakdown voltage of `vbox' = 12.3 V.
    WARNING (CMI-2377): __ECE483_SP23_FC.M5: Vgd has exceeded the oxide breakdown voltage of `vbox' = 12.3 V.
    WARNING (CMI-2375): __ECE483_SP23_FC.M4: Vgs has exceeded the oxide breakdown voltage of `vbox' = 12.3 V.
    WARNING (CMI-2377): __ECE483_SP23_FC.M4: Vgd has exceeded the oxide breakdown voltage of `vbox' = 12.3 V.

Maximum value of each quantity, excluding Verilog-A modules and dangling current sources:
V: V(ibn10u) = 10 MV
I: I(V0:p) = 10 uA
DC simulation time: CPU = 609 us, elapsed = 618.935 us.

Notice from spectre at freq = 2 GHz during STB analysis `stb'.
    No gain margin. Phase does not reach 0 Deg.

Phase margin = 82.1211 Deg at frequency = 101.299 kHz.

Opening the PSF file ../../../../../../../psf/dcOp.dc ...

Notice from spectre during DC analysis `dcOp'.
    GminDC = 1 pS is large enough to noticeably affect the DC solution.
        dV(ibn10u) = 10 MV
        Use the `gmin_check' option to eliminate or expand this report.
Warning from spectre during DC analysis `dcOp'.
    WARNING (CMI-2375): __ECE483_SP23_FC.M6: Vgs has exceeded the oxide breakdown voltage of `vbox' = 12.3 V.
    WARNING (CMI-2377): __ECE483_SP23_FC.M6: Vgd has exceeded the oxide breakdown voltage of `vbox' = 12.3 V.
    WARNING (CMI-2375): __ECE483_SP23_FC.M5: Vgs has exceeded the oxide breakdown voltage of `vbox' = 12.3 V.
    WARNING (CMI-2377): __ECE483_SP23_FC.M5: Vgd has exceeded the oxide breakdown voltage of `vbox' = 12.3 V.
    WARNING (CMI-2375): __ECE483_SP23_FC.M4: Vgs has exceeded the oxide breakdown voltage of `vbox' = 12.3 V.
    WARNING (CMI-2377): __ECE483_SP23_FC.M4: Vgd has exceeded the oxide breakdown voltage of `vbox' = 12.3 V.

Maximum value of each quantity, excluding Verilog-A modules and dangling current sources:
V: V(ibn10u) = 10 MV
I: I(V0:p) = 10 uA
DC simulation time: CPU = 2.024 ms, elapsed = 8.62598 ms.
dcOpInfo: writing operating point information to rawfile.

Opening the PSF file ../../../../../../../psf/dcOpInfo.info ...
modelParameter: writing model parameter values to rawfile.

Opening the PSF file ../../../../../../../psf/modelParameter.info ...
element: writing instance parameter values to rawfile.

Opening the PSF file ../../../../../../../psf/element.info ...
outputParameter: writing output parameter values to rawfile.

Opening the PSF file ../../../../../../../psf/outputParameter.info ...
designParamVals: writing netlist parameters to rawfile.

Opening the PSFASCII file ../../../../../../../psf/designParamVals.info ...
primitives: writing primitives to rawfile.

Opening the PSFASCII file ../../../../../../../psf/primitives.info.primitives ...
subckts: writing subcircuits to rawfile.

Opening the PSFASCII file ../../../../../../../psf/subckts.info.subckts ...

Warning from spectre.
    WARNING (SPECTRE-17101): The value 'psf' specified for the 'checklimitdest' option will no longer be supported in future releases. Use 'spectre -h' to see other recommended values for the 'checklimitdest' option.
Notice from spectre during DC analysis, during STB analysis `stb'.
    GminDC = 1 pS is large enough to noticeably affect the DC solution.
        dV(ibn10u) = 10 MV
        Use the `gmin_check' option to eliminate or expand this report.
Warning from spectre during DC analysis, during STB analysis `stb'.
    WARNING (CMI-2375): __ECE483_SP23_FC.M6: Vgs has exceeded the oxide breakdown voltage of `vbox' = 12.3 V.
    WARNING (CMI-2377): __ECE483_SP23_FC.M6: Vgd has exceeded the oxide breakdown voltage of `vbox' = 12.3 V.
    WARNING (CMI-2375): __ECE483_SP23_FC.M5: Vgs has exceeded the oxide breakdown voltage of `vbox' = 12.3 V.
    WARNING (CMI-2377): __ECE483_SP23_FC.M5: Vgd has exceeded the oxide breakdown voltage of `vbox' = 12.3 V.
    WARNING (CMI-2375): __ECE483_SP23_FC.M4: Vgs has exceeded the oxide breakdown voltage of `vbox' = 12.3 V.
    WARNING (CMI-2377): __ECE483_SP23_FC.M4: Vgd has exceeded the oxide breakdown voltage of `vbox' = 12.3 V.

Maximum value of each quantity, excluding Verilog-A modules and dangling current sources:
V: V(ibn10u) = 10 MV
I: I(V0:p) = 10 uA
DC simulation time: CPU = 566 us, elapsed = 572.92 us.

Notice from spectre at freq = 2 GHz during STB analysis `stb'.
    No gain margin. Phase does not reach 0 Deg.

Phase margin = 82.2333 Deg at frequency = 99.048 kHz.

Opening the PSF file ../../../../../../../psf/dcOp.dc ...

Notice from spectre during DC analysis `dcOp'.
    GminDC = 1 pS is large enough to noticeably affect the DC solution.
        dV(ibn10u) = 10 MV
        Use the `gmin_check' option to eliminate or expand this report.
Warning from spectre during DC analysis `dcOp'.
    WARNING (CMI-2375): __ECE483_SP23_FC.M6: Vgs has exceeded the oxide breakdown voltage of `vbox' = 12.3 V.
    WARNING (CMI-2377): __ECE483_SP23_FC.M6: Vgd has exceeded the oxide breakdown voltage of `vbox' = 12.3 V.
    WARNING (CMI-2375): __ECE483_SP23_FC.M5: Vgs has exceeded the oxide breakdown voltage of `vbox' = 12.3 V.
    WARNING (CMI-2377): __ECE483_SP23_FC.M5: Vgd has exceeded the oxide breakdown voltage of `vbox' = 12.3 V.
    WARNING (CMI-2375): __ECE483_SP23_FC.M4: Vgs has exceeded the oxide breakdown voltage of `vbox' = 12.3 V.
    WARNING (CMI-2377): __ECE483_SP23_FC.M4: Vgd has exceeded the oxide breakdown voltage of `vbox' = 12.3 V.

Maximum value of each quantity, excluding Verilog-A modules and dangling current sources:
V: V(ibn10u) = 10 MV
I: I(V0:p) = 10 uA
DC simulation time: CPU = 1.843 ms, elapsed = 7.72595 ms.
dcOpInfo: writing operating point information to rawfile.

Opening the PSF file ../../../../../../../psf/dcOpInfo.info ...
modelParameter: writing model parameter values to rawfile.

Opening the PSF file ../../../../../../../psf/modelParameter.info ...
element: writing instance parameter values to rawfile.

Opening the PSF file ../../../../../../../psf/element.info ...
outputParameter: writing output parameter values to rawfile.

Opening the PSF file ../../../../../../../psf/outputParameter.info ...
designParamVals: writing netlist parameters to rawfile.

Opening the PSFASCII file ../../../../../../../psf/designParamVals.info ...
primitives: writing primitives to rawfile.

Opening the PSFASCII file ../../../../../../../psf/primitives.info.primitives ...
subckts: writing subcircuits to rawfile.

Opening the PSFASCII file ../../../../../../../psf/subckts.info.subckts ...

Warning from spectre.
    WARNING (SPECTRE-17101): The value 'psf' specified for the 'checklimitdest' option will no longer be supported in future releases. Use 'spectre -h' to see other recommended values for the 'checklimitdest' option.
Notice from spectre during DC analysis, during STB analysis `stb'.
    GminDC = 1 pS is large enough to noticeably affect the DC solution.
        dV(ibn10u) = 10 MV
        Use the `gmin_check' option to eliminate or expand this report.
Warning from spectre during DC analysis, during STB analysis `stb'.
    WARNING (CMI-2375): __ECE483_SP23_FC.M6: Vgs has exceeded the oxide breakdown voltage of `vbox' = 12.3 V.
    WARNING (CMI-2377): __ECE483_SP23_FC.M6: Vgd has exceeded the oxide breakdown voltage of `vbox' = 12.3 V.
    WARNING (CMI-2375): __ECE483_SP23_FC.M5: Vgs has exceeded the oxide breakdown voltage of `vbox' = 12.3 V.
    WARNING (CMI-2377): __ECE483_SP23_FC.M5: Vgd has exceeded the oxide breakdown voltage of `vbox' = 12.3 V.
    WARNING (CMI-2375): __ECE483_SP23_FC.M4: Vgs has exceeded the oxide breakdown voltage of `vbox' = 12.3 V.
    WARNING (CMI-2377): __ECE483_SP23_FC.M4: Vgd has exceeded the oxide breakdown voltage of `vbox' = 12.3 V.

Maximum value of each quantity, excluding Verilog-A modules and dangling current sources:
V: V(ibn10u) = 10 MV
I: I(V0:p) = 10 uA
DC simulation time: CPU = 646 us, elapsed = 663.996 us.

Notice from spectre at freq = 2 GHz during STB analysis `stb'.
    No gain margin. Phase does not reach 0 Deg.

Phase margin = 82.47 Deg at frequency = 94.6158 kHz.

Opening the PSF file ../../../../../../../psf/dcOp.dc ...

Notice from spectre during DC analysis `dcOp'.
    GminDC = 1 pS is large enough to noticeably affect the DC solution.
        dV(ibn10u) = 10 MV
        Use the `gmin_check' option to eliminate or expand this report.
Warning from spectre during DC analysis `dcOp'.
    WARNING (CMI-2375): __ECE483_SP23_FC.M6: Vgs has exceeded the oxide breakdown voltage of `vbox' = 12.3 V.
    WARNING (CMI-2377): __ECE483_SP23_FC.M6: Vgd has exceeded the oxide breakdown voltage of `vbox' = 12.3 V.
    WARNING (CMI-2375): __ECE483_SP23_FC.M5: Vgs has exceeded the oxide breakdown voltage of `vbox' = 12.3 V.
    WARNING (CMI-2377): __ECE483_SP23_FC.M5: Vgd has exceeded the oxide breakdown voltage of `vbox' = 12.3 V.
    WARNING (CMI-2375): __ECE483_SP23_FC.M4: Vgs has exceeded the oxide breakdown voltage of `vbox' = 12.3 V.
    WARNING (CMI-2377): __ECE483_SP23_FC.M4: Vgd has exceeded the oxide breakdown voltage of `vbox' = 12.3 V.

Maximum value of each quantity, excluding Verilog-A modules and dangling current sources:
V: V(ibn10u) = 10 MV
I: I(V0:p) = 10 uA
DC simulation time: CPU = 1.719 ms, elapsed = 7.44796 ms.
dcOpInfo: writing operating point information to rawfile.

Opening the PSF file ../../../../../../../psf/dcOpInfo.info ...
modelParameter: writing model parameter values to rawfile.

Opening the PSF file ../../../../../../../psf/modelParameter.info ...
element: writing instance parameter values to rawfile.

Opening the PSF file ../../../../../../../psf/element.info ...
outputParameter: writing output parameter values to rawfile.

Opening the PSF file ../../../../../../../psf/outputParameter.info ...
designParamVals: writing netlist parameters to rawfile.

Opening the PSFASCII file ../../../../../../../psf/designParamVals.info ...
primitives: writing primitives to rawfile.

Opening the PSFASCII file ../../../../../../../psf/primitives.info.primitives ...
subckts: writing subcircuits to rawfile.

Opening the PSFASCII file ../../../../../../../psf/subckts.info.subckts ...

Warning from spectre.
    WARNING (SPECTRE-17101): The value 'psf' specified for the 'checklimitdest' option will no longer be supported in future releases. Use 'spectre -h' to see other recommended values for the 'checklimitdest' option.
Notice from spectre during DC analysis, during STB analysis `stb'.
    GminDC = 1 pS is large enough to noticeably affect the DC solution.
        dV(ibn10u) = 10 MV
        Use the `gmin_check' option to eliminate or expand this report.
Warning from spectre during DC analysis, during STB analysis `stb'.
    WARNING (CMI-2375): __ECE483_SP23_FC.M6: Vgs has exceeded the oxide breakdown voltage of `vbox' = 12.3 V.
    WARNING (CMI-2377): __ECE483_SP23_FC.M6: Vgd has exceeded the oxide breakdown voltage of `vbox' = 12.3 V.
    WARNING (CMI-2375): __ECE483_SP23_FC.M5: Vgs has exceeded the oxide breakdown voltage of `vbox' = 12.3 V.
    WARNING (CMI-2377): __ECE483_SP23_FC.M5: Vgd has exceeded the oxide breakdown voltage of `vbox' = 12.3 V.
    WARNING (CMI-2375): __ECE483_SP23_FC.M4: Vgs has exceeded the oxide breakdown voltage of `vbox' = 12.3 V.
    WARNING (CMI-2377): __ECE483_SP23_FC.M4: Vgd has exceeded the oxide breakdown voltage of `vbox' = 12.3 V.

Maximum value of each quantity, excluding Verilog-A modules and dangling current sources:
V: V(ibn10u) = 10 MV
I: I(V0:p) = 10 uA
DC simulation time: CPU = 605 us, elapsed = 614.882 us.

Notice from spectre at freq = 2 GHz during STB analysis `stb'.
    No gain margin. Phase does not reach 0 Deg.

Phase margin = 83.0052 Deg at frequency = 85.9308 kHz.

Opening the PSF file ../../../../../../../psf/dcOp.dc ...

Notice from spectre during DC analysis `dcOp'.
    GminDC = 1 pS is large enough to noticeably affect the DC solution.
        dV(ibn10u) = 10 MV
        Use the `gmin_check' option to eliminate or expand this report.
Warning from spectre during DC analysis `dcOp'.
    WARNING (CMI-2375): __ECE483_SP23_FC.M6: Vgs has exceeded the oxide breakdown voltage of `vbox' = 12.3 V.
    WARNING (CMI-2377): __ECE483_SP23_FC.M6: Vgd has exceeded the oxide breakdown voltage of `vbox' = 12.3 V.
    WARNING (CMI-2375): __ECE483_SP23_FC.M5: Vgs has exceeded the oxide breakdown voltage of `vbox' = 12.3 V.
    WARNING (CMI-2377): __ECE483_SP23_FC.M5: Vgd has exceeded the oxide breakdown voltage of `vbox' = 12.3 V.
    WARNING (CMI-2375): __ECE483_SP23_FC.M4: Vgs has exceeded the oxide breakdown voltage of `vbox' = 12.3 V.
    WARNING (CMI-2377): __ECE483_SP23_FC.M4: Vgd has exceeded the oxide breakdown voltage of `vbox' = 12.3 V.

Maximum value of each quantity, excluding Verilog-A modules and dangling current sources:
V: V(ibn10u) = 10 MV
I: I(V0:p) = 10 uA
DC simulation time: CPU = 2.394 ms, elapsed = 9.69505 ms.
dcOpInfo: writing operating point information to rawfile.

Opening the PSF file ../../../../../../../psf/dcOpInfo.info ...
modelParameter: writing model parameter values to rawfile.

Opening the PSF file ../../../../../../../psf/modelParameter.info ...
element: writing instance parameter values to rawfile.

Opening the PSF file ../../../../../../../psf/element.info ...
outputParameter: writing output parameter values to rawfile.

Opening the PSF file ../../../../../../../psf/outputParameter.info ...
designParamVals: writing netlist parameters to rawfile.

Opening the PSFASCII file ../../../../../../../psf/designParamVals.info ...
primitives: writing primitives to rawfile.

Opening the PSFASCII file ../../../../../../../psf/primitives.info.primitives ...
subckts: writing subcircuits to rawfile.

Opening the PSFASCII file ../../../../../../../psf/subckts.info.subckts ...

Warning from spectre.
    WARNING (SPECTRE-17101): The value 'psf' specified for the 'checklimitdest' option will no longer be supported in future releases. Use 'spectre -h' to see other recommended values for the 'checklimitdest' option.
Notice from spectre during DC analysis, during STB analysis `stb'.
    GminDC = 1 pS is large enough to noticeably affect the DC solution.
        dV(ibn10u) = 10 MV
        Use the `gmin_check' option to eliminate or expand this report.
Warning from spectre during DC analysis, during STB analysis `stb'.
    WARNING (CMI-2375): __ECE483_SP23_FC.M6: Vgs has exceeded the oxide breakdown voltage of `vbox' = 12.3 V.
    WARNING (CMI-2377): __ECE483_SP23_FC.M6: Vgd has exceeded the oxide breakdown voltage of `vbox' = 12.3 V.
    WARNING (CMI-2375): __ECE483_SP23_FC.M5: Vgs has exceeded the oxide breakdown voltage of `vbox' = 12.3 V.
    WARNING (CMI-2377): __ECE483_SP23_FC.M5: Vgd has exceeded the oxide breakdown voltage of `vbox' = 12.3 V.
    WARNING (CMI-2375): __ECE483_SP23_FC.M4: Vgs has exceeded the oxide breakdown voltage of `vbox' = 12.3 V.
    WARNING (CMI-2377): __ECE483_SP23_FC.M4: Vgd has exceeded the oxide breakdown voltage of `vbox' = 12.3 V.

Maximum value of each quantity, excluding Verilog-A modules and dangling current sources:
V: V(ibn10u) = 10 MV
I: I(V0:p) = 10 uA
DC simulation time: CPU = 641 us, elapsed = 649.214 us.

Notice from spectre at freq = 2 GHz during STB analysis `stb'.
    No gain margin. Phase does not reach 0 Deg.

Phase margin = 84.4349 Deg at frequency = 69.0814 kHz.

Opening the PSF file ../../../../../../../psf/dcOp.dc ...

Notice from spectre during DC analysis `dcOp'.
    GminDC = 1 pS is large enough to noticeably affect the DC solution.
        dV(ibn10u) = 10 MV
        Use the `gmin_check' option to eliminate or expand this report.
Warning from spectre during DC analysis `dcOp'.
    WARNING (CMI-2375): __ECE483_SP23_FC.M6: Vgs has exceeded the oxide breakdown voltage of `vbox' = 12.3 V.
    WARNING (CMI-2377): __ECE483_SP23_FC.M6: Vgd has exceeded the oxide breakdown voltage of `vbox' = 12.3 V.
    WARNING (CMI-2375): __ECE483_SP23_FC.M5: Vgs has exceeded the oxide breakdown voltage of `vbox' = 12.3 V.
    WARNING (CMI-2377): __ECE483_SP23_FC.M5: Vgd has exceeded the oxide breakdown voltage of `vbox' = 12.3 V.
    WARNING (CMI-2375): __ECE483_SP23_FC.M4: Vgs has exceeded the oxide breakdown voltage of `vbox' = 12.3 V.
    WARNING (CMI-2377): __ECE483_SP23_FC.M4: Vgd has exceeded the oxide breakdown voltage of `vbox' = 12.3 V.

Maximum value of each quantity, excluding Verilog-A modules and dangling current sources:
V: V(ibn10u) = 10 MV
I: I(V0:p) = 10 uA
DC simulation time: CPU = 2.177 ms, elapsed = 7.28583 ms.
dcOpInfo: writing operating point information to rawfile.

Opening the PSF file ../../../../../../../psf/dcOpInfo.info ...
modelParameter: writing model parameter values to rawfile.

Opening the PSF file ../../../../../../../psf/modelParameter.info ...
element: writing instance parameter values to rawfile.

Opening the PSF file ../../../../../../../psf/element.info ...
outputParameter: writing output parameter values to rawfile.

Opening the PSF file ../../../../../../../psf/outputParameter.info ...
designParamVals: writing netlist parameters to rawfile.

Opening the PSFASCII file ../../../../../../../psf/designParamVals.info ...
primitives: writing primitives to rawfile.

Opening the PSFASCII file ../../../../../../../psf/primitives.info.primitives ...
subckts: writing subcircuits to rawfile.

Opening the PSFASCII file ../../../../../../../psf/subckts.info.subckts ...

Warning from spectre.
    WARNING (SPECTRE-17101): The value 'psf' specified for the 'checklimitdest' option will no longer be supported in future releases. Use 'spectre -h' to see other recommended values for the 'checklimitdest' option.
Notice from spectre during DC analysis, during STB analysis `stb'.
    GminDC = 1 pS is large enough to noticeably affect the DC solution.
        dV(ibn10u) = 10 MV
        Use the `gmin_check' option to eliminate or expand this report.
Warning from spectre during DC analysis, during STB analysis `stb'.
    WARNING (CMI-2375): __ECE483_SP23_FC.M6: Vgs has exceeded the oxide breakdown voltage of `vbox' = 12.3 V.
    WARNING (CMI-2377): __ECE483_SP23_FC.M6: Vgd has exceeded the oxide breakdown voltage of `vbox' = 12.3 V.
    WARNING (CMI-2375): __ECE483_SP23_FC.M5: Vgs has exceeded the oxide breakdown voltage of `vbox' = 12.3 V.
    WARNING (CMI-2377): __ECE483_SP23_FC.M5: Vgd has exceeded the oxide breakdown voltage of `vbox' = 12.3 V.
    WARNING (CMI-2375): __ECE483_SP23_FC.M4: Vgs has exceeded the oxide breakdown voltage of `vbox' = 12.3 V.
    WARNING (CMI-2377): __ECE483_SP23_FC.M4: Vgd has exceeded the oxide breakdown voltage of `vbox' = 12.3 V.

Maximum value of each quantity, excluding Verilog-A modules and dangling current sources:
V: V(ibn10u) = 10 MV
I: I(V0:p) = 10 uA
DC simulation time: CPU = 539 us, elapsed = 543.118 us.

Notice from spectre at freq = 2 GHz during STB analysis `stb'.
    No gain margin. Phase does not reach 0 Deg.

Phase margin = 90.7633 Deg at frequency = 37.4325 kHz.

Opening the PSF file ../../../../../../../psf/dcOp.dc ...

Notice from spectre during DC analysis `dcOp'.
    GminDC = 1 pS is large enough to noticeably affect the DC solution.
        dV(ibn10u) = 10 MV
        Use the `gmin_check' option to eliminate or expand this report.
Warning from spectre during DC analysis `dcOp'.
    WARNING (CMI-2375): __ECE483_SP23_FC.M6: Vgs has exceeded the oxide breakdown voltage of `vbox' = 12.3 V.
    WARNING (CMI-2377): __ECE483_SP23_FC.M6: Vgd has exceeded the oxide breakdown voltage of `vbox' = 12.3 V.
    WARNING (CMI-2375): __ECE483_SP23_FC.M5: Vgs has exceeded the oxide breakdown voltage of `vbox' = 12.3 V.
    WARNING (CMI-2377): __ECE483_SP23_FC.M5: Vgd has exceeded the oxide breakdown voltage of `vbox' = 12.3 V.
    WARNING (CMI-2375): __ECE483_SP23_FC.M4: Vgs has exceeded the oxide breakdown voltage of `vbox' = 12.3 V.
    WARNING (CMI-2377): __ECE483_SP23_FC.M4: Vgd has exceeded the oxide breakdown voltage of `vbox' = 12.3 V.

Maximum value of each quantity, excluding Verilog-A modules and dangling current sources:
V: V(ibn10u) = 10 MV
I: I(V0:p) = 10 uA
DC simulation time: CPU = 1.747 ms, elapsed = 6.78802 ms.
dcOpInfo: writing operating point information to rawfile.

Opening the PSF file ../../../../../../../psf/dcOpInfo.info ...
modelParameter: writing model parameter values to rawfile.

Opening the PSF file ../../../../../../../psf/modelParameter.info ...
element: writing instance parameter values to rawfile.

Opening the PSF file ../../../../../../../psf/element.info ...
outputParameter: writing output parameter values to rawfile.

Opening the PSF file ../../../../../../../psf/outputParameter.info ...
designParamVals: writing netlist parameters to rawfile.

Opening the PSFASCII file ../../../../../../../psf/designParamVals.info ...
primitives: writing primitives to rawfile.

Opening the PSFASCII file ../../../../../../../psf/primitives.info.primitives ...
subckts: writing subcircuits to rawfile.

Opening the PSFASCII file ../../../../../../../psf/subckts.info.subckts ...

Warning from spectre.
    WARNING (SPECTRE-17101): The value 'psf' specified for the 'checklimitdest' option will no longer be supported in future releases. Use 'spectre -h' to see other recommended values for the 'checklimitdest' option.
Notice from spectre during DC analysis, during STB analysis `stb'.
    GminDC = 1 pS is large enough to noticeably affect the DC solution.
        dV(ibn10u) = 10 MV
        Use the `gmin_check' option to eliminate or expand this report.
Warning from spectre during DC analysis, during STB analysis `stb'.
    WARNING (CMI-2375): __ECE483_SP23_FC.M6: Vgs has exceeded the oxide breakdown voltage of `vbox' = 12.3 V.
    WARNING (CMI-2377): __ECE483_SP23_FC.M6: Vgd has exceeded the oxide breakdown voltage of `vbox' = 12.3 V.
    WARNING (CMI-2375): __ECE483_SP23_FC.M5: Vgs has exceeded the oxide breakdown voltage of `vbox' = 12.3 V.
    WARNING (CMI-2377): __ECE483_SP23_FC.M5: Vgd has exceeded the oxide breakdown voltage of `vbox' = 12.3 V.
    WARNING (CMI-2375): __ECE483_SP23_FC.M4: Vgs has exceeded the oxide breakdown voltage of `vbox' = 12.3 V.
    WARNING (CMI-2377): __ECE483_SP23_FC.M4: Vgd has exceeded the oxide breakdown voltage of `vbox' = 12.3 V.

Maximum value of each quantity, excluding Verilog-A modules and dangling current sources:
V: V(ibn10u) = 10 MV
I: I(V0:p) = 10 uA
DC simulation time: CPU = 565 us, elapsed = 584.841 us.

Notice from spectre at freq = 2 GHz during STB analysis `stb'.
    Gain(dB)is always less than zero. The loop is always stable. No gain margin or phase margin.


Opening the PSF file ../../../../../../../psf/dcOp.dc ...

Notice from spectre during DC analysis `dcOp'.
    GminDC = 1 pS is large enough to noticeably affect the DC solution.
        dV(ibn10u) = 10 MV
        Use the `gmin_check' option to eliminate or expand this report.
Warning from spectre during DC analysis `dcOp'.
    WARNING (CMI-2375): __ECE483_SP23_FC.M6: Vgs has exceeded the oxide breakdown voltage of `vbox' = 12.3 V.
    WARNING (CMI-2377): __ECE483_SP23_FC.M6: Vgd has exceeded the oxide breakdown voltage of `vbox' = 12.3 V.
    WARNING (CMI-2375): __ECE483_SP23_FC.M5: Vgs has exceeded the oxide breakdown voltage of `vbox' = 12.3 V.
    WARNING (CMI-2377): __ECE483_SP23_FC.M5: Vgd has exceeded the oxide breakdown voltage of `vbox' = 12.3 V.
    WARNING (CMI-2375): __ECE483_SP23_FC.M4: Vgs has exceeded the oxide breakdown voltage of `vbox' = 12.3 V.
    WARNING (CMI-2377): __ECE483_SP23_FC.M4: Vgd has exceeded the oxide breakdown voltage of `vbox' = 12.3 V.

Maximum value of each quantity, excluding Verilog-A modules and dangling current sources:
V: V(ibn10u) = 10 MV
I: I(V0:p) = 10 uA
DC simulation time: CPU = 2.118 ms, elapsed = 9.26805 ms.
dcOpInfo: writing operating point information to rawfile.

Opening the PSF file ../../../../../../../psf/dcOpInfo.info ...
modelParameter: writing model parameter values to rawfile.

Opening the PSF file ../../../../../../../psf/modelParameter.info ...
element: writing instance parameter values to rawfile.

Opening the PSF file ../../../../../../../psf/element.info ...
outputParameter: writing output parameter values to rawfile.

Opening the PSF file ../../../../../../../psf/outputParameter.info ...
designParamVals: writing netlist parameters to rawfile.

Opening the PSFASCII file ../../../../../../../psf/designParamVals.info ...
primitives: writing primitives to rawfile.

Opening the PSFASCII file ../../../../../../../psf/primitives.info.primitives ...
subckts: writing subcircuits to rawfile.

Opening the PSFASCII file ../../../../../../../psf/subckts.info.subckts ...

Warning from spectre.
    WARNING (SPECTRE-17101): The value 'psf' specified for the 'checklimitdest' option will no longer be supported in future releases. Use 'spectre -h' to see other recommended values for the 'checklimitdest' option.
Notice from spectre during DC analysis, during STB analysis `stb'.
    GminDC = 1 pS is large enough to noticeably affect the DC solution.
        dV(ibn10u) = 10 MV
        Use the `gmin_check' option to eliminate or expand this report.
Warning from spectre during DC analysis, during STB analysis `stb'.
    WARNING (CMI-2375): __ECE483_SP23_FC.M6: Vgs has exceeded the oxide breakdown voltage of `vbox' = 12.3 V.
    WARNING (CMI-2377): __ECE483_SP23_FC.M6: Vgd has exceeded the oxide breakdown voltage of `vbox' = 12.3 V.
    WARNING (CMI-2375): __ECE483_SP23_FC.M5: Vgs has exceeded the oxide breakdown voltage of `vbox' = 12.3 V.
    WARNING (CMI-2377): __ECE483_SP23_FC.M5: Vgd has exceeded the oxide breakdown voltage of `vbox' = 12.3 V.
    WARNING (CMI-2375): __ECE483_SP23_FC.M4: Vgs has exceeded the oxide breakdown voltage of `vbox' = 12.3 V.
    WARNING (CMI-2377): __ECE483_SP23_FC.M4: Vgd has exceeded the oxide breakdown voltage of `vbox' = 12.3 V.

Maximum value of each quantity, excluding Verilog-A modules and dangling current sources:
V: V(ibn10u) = 10 MV
I: I(V0:p) = 10 uA
DC simulation time: CPU = 644 us, elapsed = 647.068 us.

Notice from spectre at freq = 2 GHz during STB analysis `stb'.
    Gain(dB)is always less than zero. The loop is always stable. No gain margin or phase margin.


Opening the PSF file ../../../../../../../psf/dcOp.dc ...

Notice from spectre during DC analysis `dcOp'.
    GminDC = 1 pS is large enough to noticeably affect the DC solution.
        dV(ibn10u) = 10 MV
        Use the `gmin_check' option to eliminate or expand this report.
Warning from spectre during DC analysis `dcOp'.
    WARNING (CMI-2375): __ECE483_SP23_FC.M6: Vgs has exceeded the oxide breakdown voltage of `vbox' = 12.3 V.
    WARNING (CMI-2377): __ECE483_SP23_FC.M6: Vgd has exceeded the oxide breakdown voltage of `vbox' = 12.3 V.
    WARNING (CMI-2375): __ECE483_SP23_FC.M5: Vgs has exceeded the oxide breakdown voltage of `vbox' = 12.3 V.
    WARNING (CMI-2377): __ECE483_SP23_FC.M5: Vgd has exceeded the oxide breakdown voltage of `vbox' = 12.3 V.
    WARNING (CMI-2375): __ECE483_SP23_FC.M4: Vgs has exceeded the oxide breakdown voltage of `vbox' = 12.3 V.
    WARNING (CMI-2377): __ECE483_SP23_FC.M4: Vgd has exceeded the oxide breakdown voltage of `vbox' = 12.3 V.

Maximum value of each quantity, excluding Verilog-A modules and dangling current sources:
V: V(ibn10u) = 10 MV
I: I(V0:p) = 10 uA
DC simulation time: CPU = 2.449 ms, elapsed = 7.57194 ms.
dcOpInfo: writing operating point information to rawfile.

Opening the PSF file ../../../../../../../psf/dcOpInfo.info ...
modelParameter: writing model parameter values to rawfile.

Opening the PSF file ../../../../../../../psf/modelParameter.info ...
element: writing instance parameter values to rawfile.

Opening the PSF file ../../../../../../../psf/element.info ...
outputParameter: writing output parameter values to rawfile.

Opening the PSF file ../../../../../../../psf/outputParameter.info ...
designParamVals: writing netlist parameters to rawfile.

Opening the PSFASCII file ../../../../../../../psf/designParamVals.info ...
primitives: writing primitives to rawfile.

Opening the PSFASCII file ../../../../../../../psf/primitives.info.primitives ...
subckts: writing subcircuits to rawfile.

Opening the PSFASCII file ../../../../../../../psf/subckts.info.subckts ...

Warning from spectre.
    WARNING (SPECTRE-17101): The value 'psf' specified for the 'checklimitdest' option will no longer be supported in future releases. Use 'spectre -h' to see other recommended values for the 'checklimitdest' option.
Notice from spectre during DC analysis, during STB analysis `stb'.
    GminDC = 1 pS is large enough to noticeably affect the DC solution.
        dV(ibn10u) = 10 MV
        Use the `gmin_check' option to eliminate or expand this report.
Warning from spectre during DC analysis, during STB analysis `stb'.
    WARNING (CMI-2375): __ECE483_SP23_FC.M6: Vgs has exceeded the oxide breakdown voltage of `vbox' = 12.3 V.
    WARNING (CMI-2377): __ECE483_SP23_FC.M6: Vgd has exceeded the oxide breakdown voltage of `vbox' = 12.3 V.
    WARNING (CMI-2375): __ECE483_SP23_FC.M5: Vgs has exceeded the oxide breakdown voltage of `vbox' = 12.3 V.
    WARNING (CMI-2377): __ECE483_SP23_FC.M5: Vgd has exceeded the oxide breakdown voltage of `vbox' = 12.3 V.
    WARNING (CMI-2375): __ECE483_SP23_FC.M4: Vgs has exceeded the oxide breakdown voltage of `vbox' = 12.3 V.
    WARNING (CMI-2377): __ECE483_SP23_FC.M4: Vgd has exceeded the oxide breakdown voltage of `vbox' = 12.3 V.

Maximum value of each quantity, excluding Verilog-A modules and dangling current sources:
V: V(ibn10u) = 10 MV
I: I(V0:p) = 10 uA
DC simulation time: CPU = 551 us, elapsed = 551.939 us.

Notice from spectre at freq = 2 GHz during STB analysis `stb'.
    Gain(dB)is always less than zero. The loop is always stable. No gain margin or phase margin.


Opening the PSF file ../../../../../../../psf/dcOp.dc ...

Notice from spectre during DC analysis `dcOp'.
    GminDC = 1 pS is large enough to noticeably affect the DC solution.
        dV(ibn10u) = 10 MV
        Use the `gmin_check' option to eliminate or expand this report.
Warning from spectre during DC analysis `dcOp'.
    WARNING (CMI-2375): __ECE483_SP23_FC.M6: Vgs has exceeded the oxide breakdown voltage of `vbox' = 12.3 V.
    WARNING (CMI-2377): __ECE483_SP23_FC.M6: Vgd has exceeded the oxide breakdown voltage of `vbox' = 12.3 V.
    WARNING (CMI-2375): __ECE483_SP23_FC.M5: Vgs has exceeded the oxide breakdown voltage of `vbox' = 12.3 V.
    WARNING (CMI-2377): __ECE483_SP23_FC.M5: Vgd has exceeded the oxide breakdown voltage of `vbox' = 12.3 V.
    WARNING (CMI-2375): __ECE483_SP23_FC.M4: Vgs has exceeded the oxide breakdown voltage of `vbox' = 12.3 V.
    WARNING (CMI-2377): __ECE483_SP23_FC.M4: Vgd has exceeded the oxide breakdown voltage of `vbox' = 12.3 V.

Maximum value of each quantity, excluding Verilog-A modules and dangling current sources:
V: V(ibn10u) = 10 MV
I: I(V0:p) = 10 uA
DC simulation time: CPU = 2.206 ms, elapsed = 11.673 ms.
dcOpInfo: writing operating point information to rawfile.

Opening the PSF file ../../../../../../../psf/dcOpInfo.info ...
modelParameter: writing model parameter values to rawfile.

Opening the PSF file ../../../../../../../psf/modelParameter.info ...
element: writing instance parameter values to rawfile.

Opening the PSF file ../../../../../../../psf/element.info ...
outputParameter: writing output parameter values to rawfile.

Opening the PSF file ../../../../../../../psf/outputParameter.info ...
designParamVals: writing netlist parameters to rawfile.

Opening the PSFASCII file ../../../../../../../psf/designParamVals.info ...
primitives: writing primitives to rawfile.

Opening the PSFASCII file ../../../../../../../psf/primitives.info.primitives ...
subckts: writing subcircuits to rawfile.

Opening the PSFASCII file ../../../../../../../psf/subckts.info.subckts ...

Warning from spectre.
    WARNING (SPECTRE-17101): The value 'psf' specified for the 'checklimitdest' option will no longer be supported in future releases. Use 'spectre -h' to see other recommended values for the 'checklimitdest' option.
Notice from spectre during DC analysis, during STB analysis `stb'.
    GminDC = 1 pS is large enough to noticeably affect the DC solution.
        dV(ibn10u) = 10 MV
        Use the `gmin_check' option to eliminate or expand this report.
Warning from spectre during DC analysis, during STB analysis `stb'.
    WARNING (CMI-2375): __ECE483_SP23_FC.M6: Vgs has exceeded the oxide breakdown voltage of `vbox' = 12.3 V.
    WARNING (CMI-2377): __ECE483_SP23_FC.M6: Vgd has exceeded the oxide breakdown voltage of `vbox' = 12.3 V.
    WARNING (CMI-2375): __ECE483_SP23_FC.M5: Vgs has exceeded the oxide breakdown voltage of `vbox' = 12.3 V.
    WARNING (CMI-2377): __ECE483_SP23_FC.M5: Vgd has exceeded the oxide breakdown voltage of `vbox' = 12.3 V.
    WARNING (CMI-2375): __ECE483_SP23_FC.M4: Vgs has exceeded the oxide breakdown voltage of `vbox' = 12.3 V.
    WARNING (CMI-2377): __ECE483_SP23_FC.M4: Vgd has exceeded the oxide breakdown voltage of `vbox' = 12.3 V.

Maximum value of each quantity, excluding Verilog-A modules and dangling current sources:
V: V(ibn10u) = 10 MV
I: I(V0:p) = 10 uA
DC simulation time: CPU = 583 us, elapsed = 586.987 us.

Notice from spectre at freq = 2 GHz during STB analysis `stb'.
    Gain(dB)is always less than zero. The loop is always stable. No gain margin or phase margin.


Opening the PSF file ../../../../../../../psf/dcOp.dc ...

Notice from spectre during DC analysis `dcOp'.
    GminDC = 1 pS is large enough to noticeably affect the DC solution.
        dV(ibn10u) = 10 MV
        Use the `gmin_check' option to eliminate or expand this report.
Warning from spectre during DC analysis `dcOp'.
    WARNING (CMI-2375): __ECE483_SP23_FC.M6: Vgs has exceeded the oxide breakdown voltage of `vbox' = 12.3 V.
    WARNING (CMI-2377): __ECE483_SP23_FC.M6: Vgd has exceeded the oxide breakdown voltage of `vbox' = 12.3 V.
    WARNING (CMI-2375): __ECE483_SP23_FC.M5: Vgs has exceeded the oxide breakdown voltage of `vbox' = 12.3 V.
    WARNING (CMI-2377): __ECE483_SP23_FC.M5: Vgd has exceeded the oxide breakdown voltage of `vbox' = 12.3 V.
    WARNING (CMI-2375): __ECE483_SP23_FC.M4: Vgs has exceeded the oxide breakdown voltage of `vbox' = 12.3 V.
    WARNING (CMI-2377): __ECE483_SP23_FC.M4: Vgd has exceeded the oxide breakdown voltage of `vbox' = 12.3 V.

Maximum value of each quantity, excluding Verilog-A modules and dangling current sources:
V: V(ibn10u) = 10 MV
I: I(V0:p) = 10 uA
DC simulation time: CPU = 1.711 ms, elapsed = 6.47283 ms.
dcOpInfo: writing operating point information to rawfile.

Opening the PSF file ../../../../../../../psf/dcOpInfo.info ...
modelParameter: writing model parameter values to rawfile.

Opening the PSF file ../../../../../../../psf/modelParameter.info ...
element: writing instance parameter values to rawfile.

Opening the PSF file ../../../../../../../psf/element.info ...
outputParameter: writing output parameter values to rawfile.

Opening the PSF file ../../../../../../../psf/outputParameter.info ...
designParamVals: writing netlist parameters to rawfile.

Opening the PSFASCII file ../../../../../../../psf/designParamVals.info ...
primitives: writing primitives to rawfile.

Opening the PSFASCII file ../../../../../../../psf/primitives.info.primitives ...
subckts: writing subcircuits to rawfile.

Opening the PSFASCII file ../../../../../../../psf/subckts.info.subckts ...

Warning from spectre.
    WARNING (SPECTRE-17101): The value 'psf' specified for the 'checklimitdest' option will no longer be supported in future releases. Use 'spectre -h' to see other recommended values for the 'checklimitdest' option.
Notice from spectre during DC analysis, during STB analysis `stb'.
    GminDC = 1 pS is large enough to noticeably affect the DC solution.
        dV(ibn10u) = 10 MV
        Use the `gmin_check' option to eliminate or expand this report.
Warning from spectre during DC analysis, during STB analysis `stb'.
    WARNING (CMI-2375): __ECE483_SP23_FC.M6: Vgs has exceeded the oxide breakdown voltage of `vbox' = 12.3 V.
    WARNING (CMI-2377): __ECE483_SP23_FC.M6: Vgd has exceeded the oxide breakdown voltage of `vbox' = 12.3 V.
    WARNING (CMI-2375): __ECE483_SP23_FC.M5: Vgs has exceeded the oxide breakdown voltage of `vbox' = 12.3 V.
    WARNING (CMI-2377): __ECE483_SP23_FC.M5: Vgd has exceeded the oxide breakdown voltage of `vbox' = 12.3 V.
    WARNING (CMI-2375): __ECE483_SP23_FC.M4: Vgs has exceeded the oxide breakdown voltage of `vbox' = 12.3 V.
    WARNING (CMI-2377): __ECE483_SP23_FC.M4: Vgd has exceeded the oxide breakdown voltage of `vbox' = 12.3 V.

Maximum value of each quantity, excluding Verilog-A modules and dangling current sources:
V: V(ibn10u) = 10 MV
I: I(V0:p) = 10 uA
DC simulation time: CPU = 560 us, elapsed = 573.158 us.

Notice from spectre at freq = 2 GHz during STB analysis `stb'.
    Gain(dB)is always less than zero. The loop is always stable. No gain margin or phase margin.


Opening the PSF file ../../../../../../../psf/dcOp.dc ...

Notice from spectre during DC analysis `dcOp'.
    GminDC = 1 pS is large enough to noticeably affect the DC solution.
        dV(ibn10u) = 10 MV
        Use the `gmin_check' option to eliminate or expand this report.
Warning from spectre during DC analysis `dcOp'.
    WARNING (CMI-2375): __ECE483_SP23_FC.M6: Vgs has exceeded the oxide breakdown voltage of `vbox' = 12.3 V.
    WARNING (CMI-2377): __ECE483_SP23_FC.M6: Vgd has exceeded the oxide breakdown voltage of `vbox' = 12.3 V.
    WARNING (CMI-2375): __ECE483_SP23_FC.M5: Vgs has exceeded the oxide breakdown voltage of `vbox' = 12.3 V.
    WARNING (CMI-2377): __ECE483_SP23_FC.M5: Vgd has exceeded the oxide breakdown voltage of `vbox' = 12.3 V.
    WARNING (CMI-2375): __ECE483_SP23_FC.M4: Vgs has exceeded the oxide breakdown voltage of `vbox' = 12.3 V.
    WARNING (CMI-2377): __ECE483_SP23_FC.M4: Vgd has exceeded the oxide breakdown voltage of `vbox' = 12.3 V.

Maximum value of each quantity, excluding Verilog-A modules and dangling current sources:
V: V(ibn10u) = 10 MV
I: I(V0:p) = 10 uA
DC simulation time: CPU = 1.919 ms, elapsed = 10.529 ms.
dcOpInfo: writing operating point information to rawfile.

Opening the PSF file ../../../../../../../psf/dcOpInfo.info ...
modelParameter: writing model parameter values to rawfile.

Opening the PSF file ../../../../../../../psf/modelParameter.info ...
element: writing instance parameter values to rawfile.

Opening the PSF file ../../../../../../../psf/element.info ...
outputParameter: writing output parameter values to rawfile.

Opening the PSF file ../../../../../../../psf/outputParameter.info ...
designParamVals: writing netlist parameters to rawfile.

Opening the PSFASCII file ../../../../../../../psf/designParamVals.info ...
primitives: writing primitives to rawfile.

Opening the PSFASCII file ../../../../../../../psf/primitives.info.primitives ...
subckts: writing subcircuits to rawfile.

Opening the PSFASCII file ../../../../../../../psf/subckts.info.subckts ...

Warning from spectre.
    WARNING (SPECTRE-17101): The value 'psf' specified for the 'checklimitdest' option will no longer be supported in future releases. Use 'spectre -h' to see other recommended values for the 'checklimitdest' option.
Notice from spectre during DC analysis, during STB analysis `stb'.
    GminDC = 1 pS is large enough to noticeably affect the DC solution.
        dV(ibn10u) = 10 MV
        Use the `gmin_check' option to eliminate or expand this report.
Warning from spectre during DC analysis, during STB analysis `stb'.
    WARNING (CMI-2375): __ECE483_SP23_FC.M6: Vgs has exceeded the oxide breakdown voltage of `vbox' = 12.3 V.
    WARNING (CMI-2377): __ECE483_SP23_FC.M6: Vgd has exceeded the oxide breakdown voltage of `vbox' = 12.3 V.
    WARNING (CMI-2375): __ECE483_SP23_FC.M5: Vgs has exceeded the oxide breakdown voltage of `vbox' = 12.3 V.
    WARNING (CMI-2377): __ECE483_SP23_FC.M5: Vgd has exceeded the oxide breakdown voltage of `vbox' = 12.3 V.
    WARNING (CMI-2375): __ECE483_SP23_FC.M4: Vgs has exceeded the oxide breakdown voltage of `vbox' = 12.3 V.
    WARNING (CMI-2377): __ECE483_SP23_FC.M4: Vgd has exceeded the oxide breakdown voltage of `vbox' = 12.3 V.

Maximum value of each quantity, excluding Verilog-A modules and dangling current sources:
V: V(ibn10u) = 10 MV
I: I(V0:p) = 10 uA
DC simulation time: CPU = 584 us, elapsed = 591.04 us.

Notice from spectre at freq = 2 GHz during STB analysis `stb'.
    Gain(dB)is always less than zero. The loop is always stable. No gain margin or phase margin.


Opening the PSF file ../../../../../../../psf/dcOp.dc ...

Notice from spectre during DC analysis `dcOp'.
    GminDC = 1 pS is large enough to noticeably affect the DC solution.
        dV(ibn10u) = 10 MV
        Use the `gmin_check' option to eliminate or expand this report.
Warning from spectre during DC analysis `dcOp'.
    WARNING (CMI-2375): __ECE483_SP23_FC.M6: Vgs has exceeded the oxide breakdown voltage of `vbox' = 12.3 V.
    WARNING (CMI-2377): __ECE483_SP23_FC.M6: Vgd has exceeded the oxide breakdown voltage of `vbox' = 12.3 V.
    WARNING (CMI-2375): __ECE483_SP23_FC.M5: Vgs has exceeded the oxide breakdown voltage of `vbox' = 12.3 V.
    WARNING (CMI-2377): __ECE483_SP23_FC.M5: Vgd has exceeded the oxide breakdown voltage of `vbox' = 12.3 V.
    WARNING (CMI-2375): __ECE483_SP23_FC.M4: Vgs has exceeded the oxide breakdown voltage of `vbox' = 12.3 V.
    WARNING (CMI-2377): __ECE483_SP23_FC.M4: Vgd has exceeded the oxide breakdown voltage of `vbox' = 12.3 V.

Maximum value of each quantity, excluding Verilog-A modules and dangling current sources:
V: V(ibn10u) = 10 MV
I: I(V0:p) = 10 uA
DC simulation time: CPU = 1.824 ms, elapsed = 14.7219 ms.
dcOpInfo: writing operating point information to rawfile.

Opening the PSF file ../../../../../../../psf/dcOpInfo.info ...
modelParameter: writing model parameter values to rawfile.

Opening the PSF file ../../../../../../../psf/modelParameter.info ...
element: writing instance parameter values to rawfile.

Opening the PSF file ../../../../../../../psf/element.info ...
outputParameter: writing output parameter values to rawfile.

Opening the PSF file ../../../../../../../psf/outputParameter.info ...
designParamVals: writing netlist parameters to rawfile.

Opening the PSFASCII file ../../../../../../../psf/designParamVals.info ...
primitives: writing primitives to rawfile.

Opening the PSFASCII file ../../../../../../../psf/primitives.info.primitives ...
subckts: writing subcircuits to rawfile.

Opening the PSFASCII file ../../../../../../../psf/subckts.info.subckts ...

Warning from spectre.
    WARNING (SPECTRE-17101): The value 'psf' specified for the 'checklimitdest' option will no longer be supported in future releases. Use 'spectre -h' to see other recommended values for the 'checklimitdest' option.
Notice from spectre during DC analysis, during STB analysis `stb'.
    GminDC = 1 pS is large enough to noticeably affect the DC solution.
        dV(ibn10u) = 10 MV
        Use the `gmin_check' option to eliminate or expand this report.
Warning from spectre during DC analysis, during STB analysis `stb'.
    WARNING (CMI-2375): __ECE483_SP23_FC.M6: Vgs has exceeded the oxide breakdown voltage of `vbox' = 12.3 V.
    WARNING (CMI-2377): __ECE483_SP23_FC.M6: Vgd has exceeded the oxide breakdown voltage of `vbox' = 12.3 V.
    WARNING (CMI-2375): __ECE483_SP23_FC.M5: Vgs has exceeded the oxide breakdown voltage of `vbox' = 12.3 V.
    WARNING (CMI-2377): __ECE483_SP23_FC.M5: Vgd has exceeded the oxide breakdown voltage of `vbox' = 12.3 V.
    WARNING (CMI-2375): __ECE483_SP23_FC.M4: Vgs has exceeded the oxide breakdown voltage of `vbox' = 12.3 V.
    WARNING (CMI-2377): __ECE483_SP23_FC.M4: Vgd has exceeded the oxide breakdown voltage of `vbox' = 12.3 V.

Maximum value of each quantity, excluding Verilog-A modules and dangling current sources:
V: V(ibn10u) = 10 MV
I: I(V0:p) = 10 uA
DC simulation time: CPU = 612 us, elapsed = 622.988 us.

Notice from spectre at freq = 2 GHz during STB analysis `stb'.
    Gain(dB)is always less than zero. The loop is always stable. No gain margin or phase margin.


Opening the PSF file ../../../../../../../psf/dcOp.dc ...

Notice from spectre during DC analysis `dcOp'.
    GminDC = 1 pS is large enough to noticeably affect the DC solution.
        dV(ibn10u) = 10 MV
        Use the `gmin_check' option to eliminate or expand this report.
Warning from spectre during DC analysis `dcOp'.
    WARNING (CMI-2375): __ECE483_SP23_FC.M6: Vgs has exceeded the oxide breakdown voltage of `vbox' = 12.3 V.
    WARNING (CMI-2377): __ECE483_SP23_FC.M6: Vgd has exceeded the oxide breakdown voltage of `vbox' = 12.3 V.
    WARNING (CMI-2375): __ECE483_SP23_FC.M5: Vgs has exceeded the oxide breakdown voltage of `vbox' = 12.3 V.
    WARNING (CMI-2377): __ECE483_SP23_FC.M5: Vgd has exceeded the oxide breakdown voltage of `vbox' = 12.3 V.
    WARNING (CMI-2375): __ECE483_SP23_FC.M4: Vgs has exceeded the oxide breakdown voltage of `vbox' = 12.3 V.
    WARNING (CMI-2377): __ECE483_SP23_FC.M4: Vgd has exceeded the oxide breakdown voltage of `vbox' = 12.3 V.

Maximum value of each quantity, excluding Verilog-A modules and dangling current sources:
V: V(ibn10u) = 10 MV
I: I(V0:p) = 10 uA
DC simulation time: CPU = 1.685 ms, elapsed = 8.74901 ms.
dcOpInfo: writing operating point information to rawfile.

Opening the PSF file ../../../../../../../psf/dcOpInfo.info ...
modelParameter: writing model parameter values to rawfile.

Opening the PSF file ../../../../../../../psf/modelParameter.info ...
element: writing instance parameter values to rawfile.

Opening the PSF file ../../../../../../../psf/element.info ...
outputParameter: writing output parameter values to rawfile.

Opening the PSF file ../../../../../../../psf/outputParameter.info ...
designParamVals: writing netlist parameters to rawfile.

Opening the PSFASCII file ../../../../../../../psf/designParamVals.info ...
primitives: writing primitives to rawfile.

Opening the PSFASCII file ../../../../../../../psf/primitives.info.primitives ...
subckts: writing subcircuits to rawfile.

Opening the PSFASCII file ../../../../../../../psf/subckts.info.subckts ...

Warning from spectre.
    WARNING (SPECTRE-17101): The value 'psf' specified for the 'checklimitdest' option will no longer be supported in future releases. Use 'spectre -h' to see other recommended values for the 'checklimitdest' option.
Notice from spectre during DC analysis, during STB analysis `stb'.
    GminDC = 1 pS is large enough to noticeably affect the DC solution.
        dV(ibn10u) = 10 MV
        Use the `gmin_check' option to eliminate or expand this report.
Warning from spectre during DC analysis, during STB analysis `stb'.
    WARNING (CMI-2375): __ECE483_SP23_FC.M6: Vgs has exceeded the oxide breakdown voltage of `vbox' = 12.3 V.
    WARNING (CMI-2377): __ECE483_SP23_FC.M6: Vgd has exceeded the oxide breakdown voltage of `vbox' = 12.3 V.
    WARNING (CMI-2375): __ECE483_SP23_FC.M5: Vgs has exceeded the oxide breakdown voltage of `vbox' = 12.3 V.
    WARNING (CMI-2377): __ECE483_SP23_FC.M5: Vgd has exceeded the oxide breakdown voltage of `vbox' = 12.3 V.
    WARNING (CMI-2375): __ECE483_SP23_FC.M4: Vgs has exceeded the oxide breakdown voltage of `vbox' = 12.3 V.
    WARNING (CMI-2377): __ECE483_SP23_FC.M4: Vgd has exceeded the oxide breakdown voltage of `vbox' = 12.3 V.

Maximum value of each quantity, excluding Verilog-A modules and dangling current sources:
V: V(ibn10u) = 10 MV
I: I(V0:p) = 10 uA
DC simulation time: CPU = 720 us, elapsed = 726.938 us.

Notice from spectre at freq = 2 GHz during STB analysis `stb'.
    Gain(dB)is always less than zero. The loop is always stable. No gain margin or phase margin.


Opening the PSF file ../../../../../../../psf/dcOp.dc ...

Notice from spectre during DC analysis `dcOp'.
    GminDC = 1 pS is large enough to noticeably affect the DC solution.
        dV(ibn10u) = 10 MV
        Use the `gmin_check' option to eliminate or expand this report.
Warning from spectre during DC analysis `dcOp'.
    WARNING (CMI-2375): __ECE483_SP23_FC.M6: Vgs has exceeded the oxide breakdown voltage of `vbox' = 12.3 V.
    WARNING (CMI-2377): __ECE483_SP23_FC.M6: Vgd has exceeded the oxide breakdown voltage of `vbox' = 12.3 V.
    WARNING (CMI-2375): __ECE483_SP23_FC.M5: Vgs has exceeded the oxide breakdown voltage of `vbox' = 12.3 V.
    WARNING (CMI-2377): __ECE483_SP23_FC.M5: Vgd has exceeded the oxide breakdown voltage of `vbox' = 12.3 V.
    WARNING (CMI-2375): __ECE483_SP23_FC.M4: Vgs has exceeded the oxide breakdown voltage of `vbox' = 12.3 V.
    WARNING (CMI-2377): __ECE483_SP23_FC.M4: Vgd has exceeded the oxide breakdown voltage of `vbox' = 12.3 V.

Maximum value of each quantity, excluding Verilog-A modules and dangling current sources:
V: V(ibn10u) = 10 MV
I: I(V0:p) = 10 uA
DC simulation time: CPU = 2.963 ms, elapsed = 16.1369 ms.
dcOpInfo: writing operating point information to rawfile.

Opening the PSF file ../../../../../../../psf/dcOpInfo.info ...
modelParameter: writing model parameter values to rawfile.

Opening the PSF file ../../../../../../../psf/modelParameter.info ...
element: writing instance parameter values to rawfile.

Opening the PSF file ../../../../../../../psf/element.info ...
outputParameter: writing output parameter values to rawfile.

Opening the PSF file ../../../../../../../psf/outputParameter.info ...
designParamVals: writing netlist parameters to rawfile.

Opening the PSFASCII file ../../../../../../../psf/designParamVals.info ...
primitives: writing primitives to rawfile.

Opening the PSFASCII file ../../../../../../../psf/primitives.info.primitives ...
subckts: writing subcircuits to rawfile.

Opening the PSFASCII file ../../../../../../../psf/subckts.info.subckts ...

Warning from spectre.
    WARNING (SPECTRE-17101): The value 'psf' specified for the 'checklimitdest' option will no longer be supported in future releases. Use 'spectre -h' to see other recommended values for the 'checklimitdest' option.
Notice from spectre during DC analysis, during STB analysis `stb'.
    GminDC = 1 pS is large enough to noticeably affect the DC solution.
        dV(ibn10u) = 10 MV
        Use the `gmin_check' option to eliminate or expand this report.
Warning from spectre during DC analysis, during STB analysis `stb'.
    WARNING (CMI-2375): __ECE483_SP23_FC.M6: Vgs has exceeded the oxide breakdown voltage of `vbox' = 12.3 V.
    WARNING (CMI-2377): __ECE483_SP23_FC.M6: Vgd has exceeded the oxide breakdown voltage of `vbox' = 12.3 V.
    WARNING (CMI-2375): __ECE483_SP23_FC.M5: Vgs has exceeded the oxide breakdown voltage of `vbox' = 12.3 V.
    WARNING (CMI-2377): __ECE483_SP23_FC.M5: Vgd has exceeded the oxide breakdown voltage of `vbox' = 12.3 V.
    WARNING (CMI-2375): __ECE483_SP23_FC.M4: Vgs has exceeded the oxide breakdown voltage of `vbox' = 12.3 V.
    WARNING (CMI-2377): __ECE483_SP23_FC.M4: Vgd has exceeded the oxide breakdown voltage of `vbox' = 12.3 V.

Maximum value of each quantity, excluding Verilog-A modules and dangling current sources:
V: V(ibn10u) = 10 MV
I: I(V0:p) = 10 uA
DC simulation time: CPU = 724 us, elapsed = 732.899 us.

Notice from spectre at freq = 2 GHz during STB analysis `stb'.
    Gain(dB)is always less than zero. The loop is always stable. No gain margin or phase margin.


Opening the PSF file ../../../../../../../psf/dcOp.dc ...

Notice from spectre during DC analysis `dcOp'.
    GminDC = 1 pS is large enough to noticeably affect the DC solution.
        dV(ibn10u) = 10 MV
        Use the `gmin_check' option to eliminate or expand this report.
Warning from spectre during DC analysis `dcOp'.
    WARNING (CMI-2375): __ECE483_SP23_FC.M6: Vgs has exceeded the oxide breakdown voltage of `vbox' = 12.3 V.
    WARNING (CMI-2377): __ECE483_SP23_FC.M6: Vgd has exceeded the oxide breakdown voltage of `vbox' = 12.3 V.
    WARNING (CMI-2375): __ECE483_SP23_FC.M5: Vgs has exceeded the oxide breakdown voltage of `vbox' = 12.3 V.
    WARNING (CMI-2377): __ECE483_SP23_FC.M5: Vgd has exceeded the oxide breakdown voltage of `vbox' = 12.3 V.
    WARNING (CMI-2375): __ECE483_SP23_FC.M4: Vgs has exceeded the oxide breakdown voltage of `vbox' = 12.3 V.
    WARNING (CMI-2377): __ECE483_SP23_FC.M4: Vgd has exceeded the oxide breakdown voltage of `vbox' = 12.3 V.

Maximum value of each quantity, excluding Verilog-A modules and dangling current sources:
V: V(ibn10u) = 10 MV
I: I(V0:p) = 10 uA
DC simulation time: CPU = 1.852 ms, elapsed = 6.77395 ms.
dcOpInfo: writing operating point information to rawfile.

Opening the PSF file ../../../../../../../psf/dcOpInfo.info ...
modelParameter: writing model parameter values to rawfile.

Opening the PSF file ../../../../../../../psf/modelParameter.info ...
element: writing instance parameter values to rawfile.

Opening the PSF file ../../../../../../../psf/element.info ...
outputParameter: writing output parameter values to rawfile.

Opening the PSF file ../../../../../../../psf/outputParameter.info ...
designParamVals: writing netlist parameters to rawfile.

Opening the PSFASCII file ../../../../../../../psf/designParamVals.info ...
primitives: writing primitives to rawfile.

Opening the PSFASCII file ../../../../../../../psf/primitives.info.primitives ...
subckts: writing subcircuits to rawfile.

Opening the PSFASCII file ../../../../../../../psf/subckts.info.subckts ...

Warning from spectre.
    WARNING (SPECTRE-17101): The value 'psf' specified for the 'checklimitdest' option will no longer be supported in future releases. Use 'spectre -h' to see other recommended values for the 'checklimitdest' option.
Notice from spectre during DC analysis, during STB analysis `stb'.
    GminDC = 1 pS is large enough to noticeably affect the DC solution.
        dV(ibn10u) = 10 MV
        Use the `gmin_check' option to eliminate or expand this report.
Warning from spectre during DC analysis, during STB analysis `stb'.
    WARNING (CMI-2375): __ECE483_SP23_FC.M6: Vgs has exceeded the oxide breakdown voltage of `vbox' = 12.3 V.
    WARNING (CMI-2377): __ECE483_SP23_FC.M6: Vgd has exceeded the oxide breakdown voltage of `vbox' = 12.3 V.
    WARNING (CMI-2375): __ECE483_SP23_FC.M5: Vgs has exceeded the oxide breakdown voltage of `vbox' = 12.3 V.
    WARNING (CMI-2377): __ECE483_SP23_FC.M5: Vgd has exceeded the oxide breakdown voltage of `vbox' = 12.3 V.
    WARNING (CMI-2375): __ECE483_SP23_FC.M4: Vgs has exceeded the oxide breakdown voltage of `vbox' = 12.3 V.
    WARNING (CMI-2377): __ECE483_SP23_FC.M4: Vgd has exceeded the oxide breakdown voltage of `vbox' = 12.3 V.

Maximum value of each quantity, excluding Verilog-A modules and dangling current sources:
V: V(ibn10u) = 10 MV
I: I(V0:p) = 10 uA
DC simulation time: CPU = 559 us, elapsed = 560.045 us.

Notice from spectre at freq = 2 GHz during STB analysis `stb'.
    Gain(dB)is always less than zero. The loop is always stable. No gain margin or phase margin.


Opening the PSF file ../../../../../../../psf/dcOp.dc ...

Notice from spectre during DC analysis `dcOp'.
    GminDC = 1 pS is large enough to noticeably affect the DC solution.
        dV(ibn10u) = 10 MV
        Use the `gmin_check' option to eliminate or expand this report.
Warning from spectre during DC analysis `dcOp'.
    WARNING (CMI-2375): __ECE483_SP23_FC.M6: Vgs has exceeded the oxide breakdown voltage of `vbox' = 12.3 V.
    WARNING (CMI-2377): __ECE483_SP23_FC.M6: Vgd has exceeded the oxide breakdown voltage of `vbox' = 12.3 V.
    WARNING (CMI-2375): __ECE483_SP23_FC.M5: Vgs has exceeded the oxide breakdown voltage of `vbox' = 12.3 V.
    WARNING (CMI-2377): __ECE483_SP23_FC.M5: Vgd has exceeded the oxide breakdown voltage of `vbox' = 12.3 V.
    WARNING (CMI-2375): __ECE483_SP23_FC.M4: Vgs has exceeded the oxide breakdown voltage of `vbox' = 12.3 V.
    WARNING (CMI-2377): __ECE483_SP23_FC.M4: Vgd has exceeded the oxide breakdown voltage of `vbox' = 12.3 V.

Maximum value of each quantity, excluding Verilog-A modules and dangling current sources:
V: V(ibn10u) = 10 MV
I: I(V0:p) = 10 uA
DC simulation time: CPU = 1.849 ms, elapsed = 6.1512 ms.
dcOpInfo: writing operating point information to rawfile.

Opening the PSF file ../../../../../../../psf/dcOpInfo.info ...
modelParameter: writing model parameter values to rawfile.

Opening the PSF file ../../../../../../../psf/modelParameter.info ...
element: writing instance parameter values to rawfile.

Opening the PSF file ../../../../../../../psf/element.info ...
outputParameter: writing output parameter values to rawfile.

Opening the PSF file ../../../../../../../psf/outputParameter.info ...
designParamVals: writing netlist parameters to rawfile.

Opening the PSFASCII file ../../../../../../../psf/designParamVals.info ...
primitives: writing primitives to rawfile.

Opening the PSFASCII file ../../../../../../../psf/primitives.info.primitives ...
subckts: writing subcircuits to rawfile.

Opening the PSFASCII file ../../../../../../../psf/subckts.info.subckts ...

Warning from spectre.
    WARNING (SPECTRE-17101): The value 'psf' specified for the 'checklimitdest' option will no longer be supported in future releases. Use 'spectre -h' to see other recommended values for the 'checklimitdest' option.
Notice from spectre during DC analysis, during STB analysis `stb'.
    GminDC = 1 pS is large enough to noticeably affect the DC solution.
        dV(ibn10u) = 10 MV
        Use the `gmin_check' option to eliminate or expand this report.
Warning from spectre during DC analysis, during STB analysis `stb'.
    WARNING (CMI-2375): __ECE483_SP23_FC.M6: Vgs has exceeded the oxide breakdown voltage of `vbox' = 12.3 V.
    WARNING (CMI-2377): __ECE483_SP23_FC.M6: Vgd has exceeded the oxide breakdown voltage of `vbox' = 12.3 V.
    WARNING (CMI-2375): __ECE483_SP23_FC.M5: Vgs has exceeded the oxide breakdown voltage of `vbox' = 12.3 V.
    WARNING (CMI-2377): __ECE483_SP23_FC.M5: Vgd has exceeded the oxide breakdown voltage of `vbox' = 12.3 V.
    WARNING (CMI-2375): __ECE483_SP23_FC.M4: Vgs has exceeded the oxide breakdown voltage of `vbox' = 12.3 V.
    WARNING (CMI-2377): __ECE483_SP23_FC.M4: Vgd has exceeded the oxide breakdown voltage of `vbox' = 12.3 V.

Maximum value of each quantity, excluding Verilog-A modules and dangling current sources:
V: V(ibn10u) = 10 MV
I: I(V0:p) = 10 uA
DC simulation time: CPU = 583 us, elapsed = 584.126 us.

Notice from spectre at freq = 2 GHz during STB analysis `stb'.
    Gain(dB)is always less than zero. The loop is always stable. No gain margin or phase margin.


Opening the PSF file ../../../../../../../psf/dcOp.dc ...

Notice from spectre during DC analysis `dcOp'.
    GminDC = 1 pS is large enough to noticeably affect the DC solution.
        dV(ibn10u) = 10 MV
        Use the `gmin_check' option to eliminate or expand this report.
Warning from spectre during DC analysis `dcOp'.
    WARNING (CMI-2375): __ECE483_SP23_FC.M6: Vgs has exceeded the oxide breakdown voltage of `vbox' = 12.3 V.
    WARNING (CMI-2377): __ECE483_SP23_FC.M6: Vgd has exceeded the oxide breakdown voltage of `vbox' = 12.3 V.
    WARNING (CMI-2375): __ECE483_SP23_FC.M5: Vgs has exceeded the oxide breakdown voltage of `vbox' = 12.3 V.
    WARNING (CMI-2377): __ECE483_SP23_FC.M5: Vgd has exceeded the oxide breakdown voltage of `vbox' = 12.3 V.
    WARNING (CMI-2375): __ECE483_SP23_FC.M4: Vgs has exceeded the oxide breakdown voltage of `vbox' = 12.3 V.
    WARNING (CMI-2377): __ECE483_SP23_FC.M4: Vgd has exceeded the oxide breakdown voltage of `vbox' = 12.3 V.

Maximum value of each quantity, excluding Verilog-A modules and dangling current sources:
V: V(ibn10u) = 10 MV
I: I(V0:p) = 10 uA
DC simulation time: CPU = 1.773 ms, elapsed = 6.73509 ms.
dcOpInfo: writing operating point information to rawfile.

Opening the PSF file ../../../../../../../psf/dcOpInfo.info ...
modelParameter: writing model parameter values to rawfile.

Opening the PSF file ../../../../../../../psf/modelParameter.info ...
element: writing instance parameter values to rawfile.

Opening the PSF file ../../../../../../../psf/element.info ...
outputParameter: writing output parameter values to rawfile.

Opening the PSF file ../../../../../../../psf/outputParameter.info ...
designParamVals: writing netlist parameters to rawfile.

Opening the PSFASCII file ../../../../../../../psf/designParamVals.info ...
primitives: writing primitives to rawfile.

Opening the PSFASCII file ../../../../../../../psf/primitives.info.primitives ...
subckts: writing subcircuits to rawfile.

Opening the PSFASCII file ../../../../../../../psf/subckts.info.subckts ...

Warning from spectre.
    WARNING (SPECTRE-17101): The value 'psf' specified for the 'checklimitdest' option will no longer be supported in future releases. Use 'spectre -h' to see other recommended values for the 'checklimitdest' option.
Notice from spectre during DC analysis, during STB analysis `stb'.
    GminDC = 1 pS is large enough to noticeably affect the DC solution.
        dV(ibn10u) = 10 MV
        Use the `gmin_check' option to eliminate or expand this report.
Warning from spectre during DC analysis, during STB analysis `stb'.
    WARNING (CMI-2375): __ECE483_SP23_FC.M6: Vgs has exceeded the oxide breakdown voltage of `vbox' = 12.3 V.
    WARNING (CMI-2377): __ECE483_SP23_FC.M6: Vgd has exceeded the oxide breakdown voltage of `vbox' = 12.3 V.
    WARNING (CMI-2375): __ECE483_SP23_FC.M5: Vgs has exceeded the oxide breakdown voltage of `vbox' = 12.3 V.
    WARNING (CMI-2377): __ECE483_SP23_FC.M5: Vgd has exceeded the oxide breakdown voltage of `vbox' = 12.3 V.
    WARNING (CMI-2375): __ECE483_SP23_FC.M4: Vgs has exceeded the oxide breakdown voltage of `vbox' = 12.3 V.
    WARNING (CMI-2377): __ECE483_SP23_FC.M4: Vgd has exceeded the oxide breakdown voltage of `vbox' = 12.3 V.

Maximum value of each quantity, excluding Verilog-A modules and dangling current sources:
V: V(ibn10u) = 10 MV
I: I(V0:p) = 10 uA
DC simulation time: CPU = 573 us, elapsed = 582.218 us.

Notice from spectre at freq = 2 GHz during STB analysis `stb'.
    Gain(dB)is always less than zero. The loop is always stable. No gain margin or phase margin.


Opening the PSF file ../../../../../../../psf/dcOp.dc ...

Notice from spectre during DC analysis `dcOp'.
    GminDC = 1 pS is large enough to noticeably affect the DC solution.
        dV(ibn10u) = 10 MV
        Use the `gmin_check' option to eliminate or expand this report.
Warning from spectre during DC analysis `dcOp'.
    WARNING (CMI-2375): __ECE483_SP23_FC.M6: Vgs has exceeded the oxide breakdown voltage of `vbox' = 12.3 V.
    WARNING (CMI-2377): __ECE483_SP23_FC.M6: Vgd has exceeded the oxide breakdown voltage of `vbox' = 12.3 V.
    WARNING (CMI-2375): __ECE483_SP23_FC.M5: Vgs has exceeded the oxide breakdown voltage of `vbox' = 12.3 V.
    WARNING (CMI-2377): __ECE483_SP23_FC.M5: Vgd has exceeded the oxide breakdown voltage of `vbox' = 12.3 V.
    WARNING (CMI-2375): __ECE483_SP23_FC.M4: Vgs has exceeded the oxide breakdown voltage of `vbox' = 12.3 V.
    WARNING (CMI-2377): __ECE483_SP23_FC.M4: Vgd has exceeded the oxide breakdown voltage of `vbox' = 12.3 V.

Maximum value of each quantity, excluding Verilog-A modules and dangling current sources:
V: V(ibn10u) = 10 MV
I: I(V0:p) = 10 uA
DC simulation time: CPU = 2.014 ms, elapsed = 7.10106 ms.
dcOpInfo: writing operating point information to rawfile.

Opening the PSF file ../../../../../../../psf/dcOpInfo.info ...
modelParameter: writing model parameter values to rawfile.

Opening the PSF file ../../../../../../../psf/modelParameter.info ...
element: writing instance parameter values to rawfile.

Opening the PSF file ../../../../../../../psf/element.info ...
outputParameter: writing output parameter values to rawfile.

Opening the PSF file ../../../../../../../psf/outputParameter.info ...
designParamVals: writing netlist parameters to rawfile.

Opening the PSFASCII file ../../../../../../../psf/designParamVals.info ...
primitives: writing primitives to rawfile.

Opening the PSFASCII file ../../../../../../../psf/primitives.info.primitives ...
subckts: writing subcircuits to rawfile.

Opening the PSFASCII file ../../../../../../../psf/subckts.info.subckts ...

Warning from spectre.
    WARNING (SPECTRE-17101): The value 'psf' specified for the 'checklimitdest' option will no longer be supported in future releases. Use 'spectre -h' to see other recommended values for the 'checklimitdest' option.
Notice from spectre during DC analysis, during STB analysis `stb'.
    GminDC = 1 pS is large enough to noticeably affect the DC solution.
        dV(ibn10u) = 10 MV
        Use the `gmin_check' option to eliminate or expand this report.
Warning from spectre during DC analysis, during STB analysis `stb'.
    WARNING (CMI-2375): __ECE483_SP23_FC.M6: Vgs has exceeded the oxide breakdown voltage of `vbox' = 12.3 V.
    WARNING (CMI-2377): __ECE483_SP23_FC.M6: Vgd has exceeded the oxide breakdown voltage of `vbox' = 12.3 V.
    WARNING (CMI-2375): __ECE483_SP23_FC.M5: Vgs has exceeded the oxide breakdown voltage of `vbox' = 12.3 V.
    WARNING (CMI-2377): __ECE483_SP23_FC.M5: Vgd has exceeded the oxide breakdown voltage of `vbox' = 12.3 V.
    WARNING (CMI-2375): __ECE483_SP23_FC.M4: Vgs has exceeded the oxide breakdown voltage of `vbox' = 12.3 V.
    WARNING (CMI-2377): __ECE483_SP23_FC.M4: Vgd has exceeded the oxide breakdown voltage of `vbox' = 12.3 V.

Maximum value of each quantity, excluding Verilog-A modules and dangling current sources:
V: V(ibn10u) = 10 MV
I: I(V0:p) = 10 uA
DC simulation time: CPU = 576 us, elapsed = 584.126 us.

Notice from spectre at freq = 2 GHz during STB analysis `stb'.
    Gain(dB)is always less than zero. The loop is always stable. No gain margin or phase margin.


Opening the PSF file ../../../../../../../psf/dcOp.dc ...

Notice from spectre during DC analysis `dcOp'.
    GminDC = 1 pS is large enough to noticeably affect the DC solution.
        dV(ibn10u) = 10 MV
        Use the `gmin_check' option to eliminate or expand this report.
Warning from spectre during DC analysis `dcOp'.
    WARNING (CMI-2375): __ECE483_SP23_FC.M6: Vgs has exceeded the oxide breakdown voltage of `vbox' = 12.3 V.
    WARNING (CMI-2377): __ECE483_SP23_FC.M6: Vgd has exceeded the oxide breakdown voltage of `vbox' = 12.3 V.
    WARNING (CMI-2375): __ECE483_SP23_FC.M5: Vgs has exceeded the oxide breakdown voltage of `vbox' = 12.3 V.
    WARNING (CMI-2377): __ECE483_SP23_FC.M5: Vgd has exceeded the oxide breakdown voltage of `vbox' = 12.3 V.
    WARNING (CMI-2375): __ECE483_SP23_FC.M4: Vgs has exceeded the oxide breakdown voltage of `vbox' = 12.3 V.
    WARNING (CMI-2377): __ECE483_SP23_FC.M4: Vgd has exceeded the oxide breakdown voltage of `vbox' = 12.3 V.

Maximum value of each quantity, excluding Verilog-A modules and dangling current sources:
V: V(ibn10u) = 10 MV
I: I(V0:p) = 10 uA
DC simulation time: CPU = 1.643 ms, elapsed = 6.68192 ms.
dcOpInfo: writing operating point information to rawfile.

Opening the PSF file ../../../../../../../psf/dcOpInfo.info ...
modelParameter: writing model parameter values to rawfile.

Opening the PSF file ../../../../../../../psf/modelParameter.info ...
element: writing instance parameter values to rawfile.

Opening the PSF file ../../../../../../../psf/element.info ...
outputParameter: writing output parameter values to rawfile.

Opening the PSF file ../../../../../../../psf/outputParameter.info ...
designParamVals: writing netlist parameters to rawfile.

Opening the PSFASCII file ../../../../../../../psf/designParamVals.info ...
primitives: writing primitives to rawfile.

Opening the PSFASCII file ../../../../../../../psf/primitives.info.primitives ...
subckts: writing subcircuits to rawfile.

Opening the PSFASCII file ../../../../../../../psf/subckts.info.subckts ...

Warning from spectre.
    WARNING (SPECTRE-17101): The value 'psf' specified for the 'checklimitdest' option will no longer be supported in future releases. Use 'spectre -h' to see other recommended values for the 'checklimitdest' option.
Notice from spectre during DC analysis, during STB analysis `stb'.
    GminDC = 1 pS is large enough to noticeably affect the DC solution.
        dV(ibn10u) = 10 MV
        Use the `gmin_check' option to eliminate or expand this report.
Warning from spectre during DC analysis, during STB analysis `stb'.
    WARNING (CMI-2375): __ECE483_SP23_FC.M6: Vgs has exceeded the oxide breakdown voltage of `vbox' = 12.3 V.
    WARNING (CMI-2377): __ECE483_SP23_FC.M6: Vgd has exceeded the oxide breakdown voltage of `vbox' = 12.3 V.
    WARNING (CMI-2375): __ECE483_SP23_FC.M5: Vgs has exceeded the oxide breakdown voltage of `vbox' = 12.3 V.
    WARNING (CMI-2377): __ECE483_SP23_FC.M5: Vgd has exceeded the oxide breakdown voltage of `vbox' = 12.3 V.
    WARNING (CMI-2375): __ECE483_SP23_FC.M4: Vgs has exceeded the oxide breakdown voltage of `vbox' = 12.3 V.
    WARNING (CMI-2377): __ECE483_SP23_FC.M4: Vgd has exceeded the oxide breakdown voltage of `vbox' = 12.3 V.

Maximum value of each quantity, excluding Verilog-A modules and dangling current sources:
V: V(ibn10u) = 10 MV
I: I(V0:p) = 10 uA
DC simulation time: CPU = 589 us, elapsed = 597 us.

Notice from spectre at freq = 2 GHz during STB analysis `stb'.
    Gain(dB)is always less than zero. The loop is always stable. No gain margin or phase margin.


Opening the PSF file ../../../../../../../psf/dcOp.dc ...

Notice from spectre during DC analysis `dcOp'.
    GminDC = 1 pS is large enough to noticeably affect the DC solution.
        dV(ibn10u) = 10 MV
        Use the `gmin_check' option to eliminate or expand this report.
Warning from spectre during DC analysis `dcOp'.
    WARNING (CMI-2375): __ECE483_SP23_FC.M6: Vgs has exceeded the oxide breakdown voltage of `vbox' = 12.3 V.
    WARNING (CMI-2377): __ECE483_SP23_FC.M6: Vgd has exceeded the oxide breakdown voltage of `vbox' = 12.3 V.
    WARNING (CMI-2375): __ECE483_SP23_FC.M5: Vgs has exceeded the oxide breakdown voltage of `vbox' = 12.3 V.
    WARNING (CMI-2377): __ECE483_SP23_FC.M5: Vgd has exceeded the oxide breakdown voltage of `vbox' = 12.3 V.
    WARNING (CMI-2375): __ECE483_SP23_FC.M4: Vgs has exceeded the oxide breakdown voltage of `vbox' = 12.3 V.
    WARNING (CMI-2377): __ECE483_SP23_FC.M4: Vgd has exceeded the oxide breakdown voltage of `vbox' = 12.3 V.

Maximum value of each quantity, excluding Verilog-A modules and dangling current sources:
V: V(ibn10u) = 10 MV
I: I(V0:p) = 10 uA
DC simulation time: CPU = 1.677 ms, elapsed = 5.87296 ms.
dcOpInfo: writing operating point information to rawfile.

Opening the PSF file ../../../../../../../psf/dcOpInfo.info ...
modelParameter: writing model parameter values to rawfile.

Opening the PSF file ../../../../../../../psf/modelParameter.info ...
[...]

Opening the PSF file ../../../../../../../psf/outputParameter.info ...
designParamVals: writing netlist parameters to rawfile.

Opening the PSFASCII file ../../../../../../../psf/designParamVals.info ...
primitives: writing primitives to rawfile.

Opening the PSFASCII file ../../../../../../../psf/primitives.info.primitives ...
subckts: writing subcircuits to rawfile.

Opening the PSFASCII file ../../../../../../../psf/subckts.info.subckts ...

Warning from spectre.
    WARNING (SPECTRE-17101): The value 'psf' specified for the 'checklimitdest' option will no longer be supported in future releases. Use 'spectre -h' to see other recommended values for the 'checklimitdest' option.
Notice from spectre during DC analysis, during STB analysis `stb'.
    GminDC = 1 pS is large enough to noticeably affect the DC solution.
        dV(ibn10u) = 10 MV
        Use the `gmin_check' option to eliminate or expand this report.
Warning from spectre during DC analysis, during STB analysis `stb'.
    WARNING (CMI-2375): __ECE483_SP23_FC.M6: Vgs has exceeded the oxide breakdown voltage of `vbox' = 12.3 V.
    WARNING (CMI-2377): __ECE483_SP23_FC.M6: Vgd has exceeded the oxide breakdown voltage of `vbox' = 12.3 V.
    WARNING (CMI-2375): __ECE483_SP23_FC.M5: Vgs has exceeded the oxide breakdown voltage of `vbox' = 12.3 V.
    WARNING (CMI-2377): __ECE483_SP23_FC.M5: Vgd has exceeded the oxide breakdown voltage of `vbox' = 12.3 V.
    WARNING (CMI-2375): __ECE483_SP23_FC.M4: Vgs has exceeded the oxide breakdown voltage of `vbox' = 12.3 V.
    WARNING (CMI-2377): __ECE483_SP23_FC.M4: Vgd has exceeded the oxide breakdown voltage of `vbox' = 12.3 V.

Maximum value of each quantity, excluding Verilog-A modules and dangling current sources:
V: V(ibn10u) = 10 MV
I: I(V0:p) = 10 uA
DC simulation time: CPU = 452 us, elapsed = 452.995 us.

Notice from spectre at freq = 2 GHz during STB analysis `stb'.
    Gain(dB)is always less than zero. The loop is always stable. No gain margin or phase margin.


Opening the PSF file ../../../../../../../psf/dcOp.dc ...

Notice from spectre during DC analysis `dcOp'.
    GminDC = 1 pS is large enough to noticeably affect the DC solution.
        dV(ibn10u) = 10 MV
        Use the `gmin_check' option to eliminate or expand this report.
Warning from spectre during DC analysis `dcOp'.
    WARNING (CMI-2375): __ECE483_SP23_FC.M6: Vgs has exceeded the oxide breakdown voltage of `vbox' = 12.3 V.
    WARNING (CMI-2377): __ECE483_SP23_FC.M6: Vgd has exceeded the oxide breakdown voltage of `vbox' = 12.3 V.
    WARNING (CMI-2375): __ECE483_SP23_FC.M5: Vgs has exceeded the oxide breakdown voltage of `vbox' = 12.3 V.
    WARNING (CMI-2377): __ECE483_SP23_FC.M5: Vgd has exceeded the oxide breakdown voltage of `vbox' = 12.3 V.
    WARNING (CMI-2375): __ECE483_SP23_FC.M4: Vgs has exceeded the oxide breakdown voltage of `vbox' = 12.3 V.
    WARNING (CMI-2377): __ECE483_SP23_FC.M4: Vgd has exceeded the oxide breakdown voltage of `vbox' = 12.3 V.

Maximum value of each quantity, excluding Verilog-A modules and dangling current sources:
V: V(ibn10u) = 10 MV
I: I(V0:p) = 10 uA
DC simulation time: CPU = 1.818 ms, elapsed = 25.9809 ms.
dcOpInfo: writing operating point information to rawfile.

Opening the PSF file ../../../../../../../psf/dcOpInfo.info ...
modelParameter: writing model parameter values to rawfile.

Opening the PSF file ../../../../../../../psf/modelParameter.info ...
element: writing instance parameter values to rawfile.

Opening the PSF file ../../../../../../../psf/element.info ...
outputParameter: writing output parameter values to rawfile.

Opening the PSF file ../../../../../../../psf/outputParameter.info ...
designParamVals: writing netlist parameters to rawfile.

Opening the PSFASCII file ../../../../../../../psf/designParamVals.info ...
primitives: writing primitives to rawfile.

Opening the PSFASCII file ../../../../../../../psf/primitives.info.primitives ...
subckts: writing subcircuits to rawfile.

Opening the PSFASCII file ../../../../../../../psf/subckts.info.subckts ...

Warning from spectre.
    WARNING (SPECTRE-17101): The value 'psf' specified for the 'checklimitdest' option will no longer be supported in future releases. Use 'spectre -h' to see other recommended values for the 'checklimitdest' option.
Notice from spectre during DC analysis, during STB analysis `stb'.
    GminDC = 1 pS is large enough to noticeably affect the DC solution.
        dV(ibn10u) = 10 MV
        Use the `gmin_check' option to eliminate or expand this report.
Warning from spectre during DC analysis, during STB analysis `stb'.
    WARNING (CMI-2375): __ECE483_SP23_FC.M6: Vgs has exceeded the oxide breakdown voltage of `vbox' = 12.3 V.
    WARNING (CMI-2377): __ECE483_SP23_FC.M6: Vgd has exceeded the oxide breakdown voltage of `vbox' = 12.3 V.
    WARNING (CMI-2375): __ECE483_SP23_FC.M5: Vgs has exceeded the oxide breakdown voltage of `vbox' = 12.3 V.
    WARNING (CMI-2377): __ECE483_SP23_FC.M5: Vgd has exceeded the oxide breakdown voltage of `vbox' = 12.3 V.
    WARNING (CMI-2375): __ECE483_SP23_FC.M4: Vgs has exceeded the oxide breakdown voltage of `vbox' = 12.3 V.
    WARNING (CMI-2377): __ECE483_SP23_FC.M4: Vgd has exceeded the oxide breakdown voltage of `vbox' = 12.3 V.

Maximum value of each quantity, excluding Verilog-A modules and dangling current sources:
V: V(ibn10u) = 10 MV
I: I(V0:p) = 10 uA
DC simulation time: CPU = 668 us, elapsed = 688.076 us.

Notice from spectre at freq = 2 GHz during STB analysis `stb'.
    Gain(dB)is always less than zero. The loop is always stable. No gain margin or phase margin.


Opening the PSF file ../../../../../../../psf/dcOp.dc ...

Notice from spectre during DC analysis `dcOp'.
    GminDC = 1 pS is large enough to noticeably affect the DC solution.
        dV(ibn10u) = 10 MV
        Use the `gmin_check' option to eliminate or expand this report.
Warning from spectre during DC analysis `dcOp'.
    WARNING (CMI-2375): __ECE483_SP23_FC.M6: Vgs has exceeded the oxide breakdown voltage of `vbox' = 12.3 V.
    WARNING (CMI-2377): __ECE483_SP23_FC.M6: Vgd has exceeded the oxide breakdown voltage of `vbox' = 12.3 V.
    WARNING (CMI-2375): __ECE483_SP23_FC.M5: Vgs has exceeded the oxide breakdown voltage of `vbox' = 12.3 V.
    WARNING (CMI-2377): __ECE483_SP23_FC.M5: Vgd has exceeded the oxide breakdown voltage of `vbox' = 12.3 V.
    WARNING (CMI-2375): __ECE483_SP23_FC.M4: Vgs has exceeded the oxide breakdown voltage of `vbox' = 12.3 V.
    WARNING (CMI-2377): __ECE483_SP23_FC.M4: Vgd has exceeded the oxide breakdown voltage of `vbox' = 12.3 V.

Maximum value of each quantity, excluding Verilog-A modules and dangling current sources:
V: V(ibn10u) = 10 MV
I: I(V0:p) = 10 uA
DC simulation time: CPU = 1.796 ms, elapsed = 12.0161 ms.
dcOpInfo: writing operating point information to rawfile.

Opening the PSF file ../../../../../../../psf/dcOpInfo.info ...
modelParameter: writing model parameter values to rawfile.

Opening the PSF file ../../../../../../../psf/modelParameter.info ...
element: writing instance parameter values to rawfile.

Opening the PSF file ../../../../../../../psf/element.info ...
outputParameter: writing output parameter values to rawfile.

Opening the PSF file ../../../../../../../psf/outputParameter.info ...
designParamVals: writing netlist parameters to rawfile.

Opening the PSFASCII file ../../../../../../../psf/designParamVals.info ...
primitives: writing primitives to rawfile.

Opening the PSFASCII file ../../../../../../../psf/primitives.info.primitives ...
subckts: writing subcircuits to rawfile.

Opening the PSFASCII file ../../../../../../../psf/subckts.info.subckts ...

Warning from spectre.
    WARNING (SPECTRE-17101): The value 'psf' specified for the 'checklimitdest' option will no longer be supported in future releases. Use 'spectre -h' to see other recommended values for the 'checklimitdest' option.
Notice from spectre during DC analysis, during STB analysis `stb'.
    GminDC = 1 pS is large enough to noticeably affect the DC solution.
        dV(ibn10u) = 10 MV
        Use the `gmin_check' option to eliminate or expand this report.
Warning from spectre during DC analysis, during STB analysis `stb'.
    WARNING (CMI-2375): __ECE483_SP23_FC.M6: Vgs has exceeded the oxide breakdown voltage of `vbox' = 12.3 V.
    WARNING (CMI-2377): __ECE483_SP23_FC.M6: Vgd has exceeded the oxide breakdown voltage of `vbox' = 12.3 V.
    WARNING (CMI-2375): __ECE483_SP23_FC.M5: Vgs has exceeded the oxide breakdown voltage of `vbox' = 12.3 V.
    WARNING (CMI-2377): __ECE483_SP23_FC.M5: Vgd has exceeded the oxide breakdown voltage of `vbox' = 12.3 V.
    WARNING (CMI-2375): __ECE483_SP23_FC.M4: Vgs has exceeded the oxide breakdown voltage of `vbox' = 12.3 V.
    WARNING (CMI-2377): __ECE483_SP23_FC.M4: Vgd has exceeded the oxide breakdown voltage of `vbox' = 12.3 V.

Maximum value of each quantity, excluding Verilog-A modules and dangling current sources:
V: V(ibn10u) = 10 MV
I: I(V0:p) = 10 uA
DC simulation time: CPU = 517 us, elapsed = 529.051 us.

Notice from spectre at freq = 2 GHz during STB analysis `stb'.
    Gain(dB)is always less than zero. The loop is always stable. No gain margin or phase margin.


Opening the PSF file ../../../../../../../psf/dcOp.dc ...

Notice from spectre during DC analysis `dcOp'.
    GminDC = 1 pS is large enough to noticeably affect the DC solution.
        dV(ibn10u) = 10 MV
        Use the `gmin_check' option to eliminate or expand this report.
Warning from spectre during DC analysis `dcOp'.
    WARNING (CMI-2375): __ECE483_SP23_FC.M6: Vgs has exceeded the oxide breakdown voltage of `vbox' = 12.3 V.
    WARNING (CMI-2377): __ECE483_SP23_FC.M6: Vgd has exceeded the oxide breakdown voltage of `vbox' = 12.3 V.
    WARNING (CMI-2375): __ECE483_SP23_FC.M5: Vgs has exceeded the oxide breakdown voltage of `vbox' = 12.3 V.
    WARNING (CMI-2377): __ECE483_SP23_FC.M5: Vgd has exceeded the oxide breakdown voltage of `vbox' = 12.3 V.
    WARNING (CMI-2375): __ECE483_SP23_FC.M4: Vgs has exceeded the oxide breakdown voltage of `vbox' = 12.3 V.
    WARNING (CMI-2377): __ECE483_SP23_FC.M4: Vgd has exceeded the oxide breakdown voltage of `vbox' = 12.3 V.

Maximum value of each quantity, excluding Verilog-A modules and dangling current sources:
V: V(ibn10u) = 10 MV
I: I(V0:p) = 10 uA
DC simulation time: CPU = 3.635 ms, elapsed = 15.728 ms.
dcOpInfo: writing operating point information to rawfile.

Opening the PSF file ../../../../../../../psf/dcOpInfo.info ...
modelParameter: writing model parameter values to rawfile.

Opening the PSF file ../../../../../../../psf/modelParameter.info ...
element: writing instance parameter values to rawfile.

Opening the PSF file ../../../../../../../psf/element.info ...
outputParameter: writing output parameter values to rawfile.

Opening the PSF file ../../../../../../../psf/outputParameter.info ...
designParamVals: writing netlist parameters to rawfile.

Opening the PSFASCII file ../../../../../../../psf/designParamVals.info ...
primitives: writing primitives to rawfile.

Opening the PSFASCII file ../../../../../../../psf/primitives.info.primitives ...
subckts: writing subcircuits to rawfile.

Opening the PSFASCII file ../../../../../../../psf/subckts.info.subckts ...

Warning from spectre.
    WARNING (SPECTRE-17101): The value 'psf' specified for the 'checklimitdest' option will no longer be supported in future releases. Use 'spectre -h' to see other recommended values for the 'checklimitdest' option.
Notice from spectre during DC analysis, during STB analysis `stb'.
    GminDC = 1 pS is large enough to noticeably affect the DC solution.
        dV(ibn10u) = 10 MV
        Use the `gmin_check' option to eliminate or expand this report.
Warning from spectre during DC analysis, during STB analysis `stb'.
    WARNING (CMI-2375): __ECE483_SP23_FC.M6: Vgs has exceeded the oxide breakdown voltage of `vbox' = 12.3 V.
    WARNING (CMI-2377): __ECE483_SP23_FC.M6: Vgd has exceeded the oxide breakdown voltage of `vbox' = 12.3 V.
    WARNING (CMI-2375): __ECE483_SP23_FC.M5: Vgs has exceeded the oxide breakdown voltage of `vbox' = 12.3 V.
    WARNING (CMI-2377): __ECE483_SP23_FC.M5: Vgd has exceeded the oxide breakdown voltage of `vbox' = 12.3 V.
    WARNING (CMI-2375): __ECE483_SP23_FC.M4: Vgs has exceeded the oxide breakdown voltage of `vbox' = 12.3 V.
    WARNING (CMI-2377): __ECE483_SP23_FC.M4: Vgd has exceeded the oxide breakdown voltage of `vbox' = 12.3 V.

Maximum value of each quantity, excluding Verilog-A modules and dangling current sources:
V: V(ibn10u) = 10 MV
I: I(V0:p) = 10 uA
DC simulation time: CPU = 508 us, elapsed = 509.977 us.

Notice from spectre at freq = 2 GHz during STB analysis `stb'.
    Gain(dB)is always less than zero. The loop is always stable. No gain margin or phase margin.


Opening the PSF file ../../../../../../../psf/dcOp.dc ...

Notice from spectre during DC analysis `dcOp'.
    GminDC = 1 pS is large enough to noticeably affect the DC solution.
        dV(ibn10u) = 10 MV
        Use the `gmin_check' option to eliminate or expand this report.
Warning from spectre during DC analysis `dcOp'.
    WARNING (CMI-2375): __ECE483_SP23_FC.M6: Vgs has exceeded the oxide breakdown voltage of `vbox' = 12.3 V.
    WARNING (CMI-2377): __ECE483_SP23_FC.M6: Vgd has exceeded the oxide breakdown voltage of `vbox' = 12.3 V.
    WARNING (CMI-2375): __ECE483_SP23_FC.M5: Vgs has exceeded the oxide breakdown voltage of `vbox' = 12.3 V.
    WARNING (CMI-2377): __ECE483_SP23_FC.M5: Vgd has exceeded the oxide breakdown voltage of `vbox' = 12.3 V.
    WARNING (CMI-2375): __ECE483_SP23_FC.M4: Vgs has exceeded the oxide breakdown voltage of `vbox' = 12.3 V.
    WARNING (CMI-2377): __ECE483_SP23_FC.M4: Vgd has exceeded the oxide breakdown voltage of `vbox' = 12.3 V.

Maximum value of each quantity, excluding Verilog-A modules and dangling current sources:
V: V(ibn10u) = 10 MV
I: I(V0:p) = 10 uA
DC simulation time: CPU = 1.572 ms, elapsed = 9.6209 ms.
dcOpInfo: writing operating point information to rawfile.

Opening the PSF file ../../../../../../../psf/dcOpInfo.info ...
modelParameter: writing model parameter values to rawfile.

Opening the PSF file ../../../../../../../psf/modelParameter.info ...
element: writing instance parameter values to rawfile.

Opening the PSF file ../../../../../../../psf/element.info ...
outputParameter: writing output parameter values to rawfile.

Opening the PSF file ../../../../../../../psf/outputParameter.info ...
designParamVals: writing netlist parameters to rawfile.

Opening the PSFASCII file ../../../../../../../psf/designParamVals.info ...
primitives: writing primitives to rawfile.

Opening the PSFASCII file ../../../../../../../psf/primitives.info.primitives ...
subckts: writing subcircuits to rawfile.

Opening the PSFASCII file ../../../../../../../psf/subckts.info.subckts ...

Warning from spectre.
    WARNING (SPECTRE-17101): The value 'psf' specified for the 'checklimitdest' option will no longer be supported in future releases. Use 'spectre -h' to see other recommended values for the 'checklimitdest' option.
Notice from spectre during DC analysis, during STB analysis `stb'.
    GminDC = 1 pS is large enough to noticeably affect the DC solution.
        dV(ibn10u) = 10 MV
        Use the `gmin_check' option to eliminate or expand this report.
Warning from spectre during DC analysis, during STB analysis `stb'.
    WARNING (CMI-2375): __ECE483_SP23_FC.M6: Vgs has exceeded the oxide breakdown voltage of `vbox' = 12.3 V.
    WARNING (CMI-2377): __ECE483_SP23_FC.M6: Vgd has exceeded the oxide breakdown voltage of `vbox' = 12.3 V.
    WARNING (CMI-2375): __ECE483_SP23_FC.M5: Vgs has exceeded the oxide breakdown voltage of `vbox' = 12.3 V.
    WARNING (CMI-2377): __ECE483_SP23_FC.M5: Vgd has exceeded the oxide breakdown voltage of `vbox' = 12.3 V.
    WARNING (CMI-2375): __ECE483_SP23_FC.M4: Vgs has exceeded the oxide breakdown voltage of `vbox' = 12.3 V.
    WARNING (CMI-2377): __ECE483_SP23_FC.M4: Vgd has exceeded the oxide breakdown voltage of `vbox' = 12.3 V.

Maximum value of each quantity, excluding Verilog-A modules and dangling current sources:
V: V(ibn10u) = 10 MV
I: I(V0:p) = 10 uA
DC simulation time: CPU = 502 us, elapsed = 503.063 us.

Notice from spectre at freq = 2 GHz during STB analysis `stb'.
    Gain(dB)is always less than zero. The loop is always stable. No gain margin or phase margin.


Opening the PSF file ../../../../../../../psf/dcOp.dc ...

Notice from spectre during DC analysis `dcOp'.
    GminDC = 1 pS is large enough to noticeably affect the DC solution.
        dV(ibn10u) = 10 MV
        Use the `gmin_check' option to eliminate or expand this report.
Warning from spectre during DC analysis `dcOp'.
    WARNING (CMI-2375): __ECE483_SP23_FC.M6: Vgs has exceeded the oxide breakdown voltage of `vbox' = 12.3 V.
    WARNING (CMI-2377): __ECE483_SP23_FC.M6: Vgd has exceeded the oxide breakdown voltage of `vbox' = 12.3 V.
    WARNING (CMI-2375): __ECE483_SP23_FC.M5: Vgs has exceeded the oxide breakdown voltage of `vbox' = 12.3 V.
    WARNING (CMI-2377): __ECE483_SP23_FC.M5: Vgd has exceeded the oxide breakdown voltage of `vbox' = 12.3 V.
    WARNING (CMI-2375): __ECE483_SP23_FC.M4: Vgs has exceeded the oxide breakdown voltage of `vbox' = 12.3 V.
    WARNING (CMI-2377): __ECE483_SP23_FC.M4: Vgd has exceeded the oxide breakdown voltage of `vbox' = 12.3 V.

Maximum value of each quantity, excluding Verilog-A modules and dangling current sources:
V: V(ibn10u) = 10 MV
I: I(V0:p) = 10 uA
DC simulation time: CPU = 2.062 ms, elapsed = 27.8342 ms.
dcOpInfo: writing operating point information to rawfile.

Opening the PSF file ../../../../../../../psf/dcOpInfo.info ...
modelParameter: writing model parameter values to rawfile.

Opening the PSF file ../../../../../../../psf/modelParameter.info ...
element: writing instance parameter values to rawfile.

Opening the PSF file ../../../../../../../psf/element.info ...
outputParameter: writing output parameter values to rawfile.

Opening the PSF file ../../../../../../../psf/outputParameter.info ...
designParamVals: writing netlist parameters to rawfile.

Opening the PSFASCII file ../../../../../../../psf/designParamVals.info ...
primitives: writing primitives to rawfile.

Opening the PSFASCII file ../../../../../../../psf/primitives.info.primitives ...
subckts: writing subcircuits to rawfile.

Opening the PSFASCII file ../../../../../../../psf/subckts.info.subckts ...

Spectre received SIGTERM sent from PID: 170884 with UID: 1276483.
Process hierarchy of PID 170884 :
    PID        COMMAND
    170884     /software/cadence-2021-09/ICADVM201/tools/bin/64bit/cdsServIpc -c 36581 -n 13 -r 0 -x cd /home/tianles3/cadence/simulation/ece483_sp25_AG/tb_mp4/maestro/results/maestro/ExplorerRun.0/1/ece483_sp25_AG_tb_mp4_1/netlist_tianles3 ; ./runSimulation 
    168704     /software/cadence-2021-09/ICADVM201/tools.lnx86/dfII/bin/64bit/virtuoso -replay /home/tianles3/cadence/simulation/ece483_sp25_AG/tb_mp4/autograde.tcl 
    168514     bash /home/tianles3/Downloads/LLM2/run_autograder.sh 
    168330     python3 test_eval.py 
    167978     bash 
    167970     /usr/libexec/gnome-terminal-server 
Licensing Information:
Lic Summary:
[15:25:22.258867] Cdslmd servers:5280@cadence.webstore.illinois.edu
[15:25:22.258913] Feature usage summary:
[15:25:22.258913] Virtuoso_Multi_mode_Simulation


Error found by spectre.
    ERROR (SPECTRE-25): 
        ;)


Aggregate audit (3:25:22 PM, Fri Apr 25, 2025):
Time used: CPU = 2.03 s, elapsed = 153 s (2m  33.0s), util. = 1.33%.
Time spent in licensing: elapsed = 131 ms.
Peak memory used = 125 Mbytes.
Simulation started at: 3:22:49 PM, Fri Apr 25, 2025, ended at: 3:25:22 PM, Fri Apr 25, 2025, with elapsed time (wall clock): 153 s (2m  33.0s).
spectre completes with 1 error, 741 warnings, and 176 notices.
spectre terminated prematurely due to fatal error.
